smi0_conf0
     RDKit          3D

 37 40  0  0  0  0  0  0  0  0999 V2000
    5.7448   -1.5294    4.6011 C   0  0  0  0  0  0  0  0  0  0  0  0
    4.4432   -0.8701    4.7515 N   0  0  0  0  0  0  0  0  0  0  0  0
    3.6895   -1.5367    5.8254 C   0  0  0  0  0  0  0  0  0  0  0  0
    2.4433   -0.7278    6.1733 C   0  0  0  0  0  0  0  0  0  0  0  0
    1.6396   -0.3532    4.9594 C   0  0  0  0  0  0  0  0  0  0  0  0
    0.3216    0.0852    5.1188 C   0  0  0  0  0  0  0  0  0  0  0  0
   -0.4210    0.4811    4.0134 C   0  0  0  0  0  0  0  0  0  0  0  0
    0.1474    0.4490    2.7395 C   0  0  0  0  0  0  0  0  0  0  0  0
    1.4707    0.0160    2.5395 C   0  0  0  0  0  0  0  0  0  0  0  0
    2.2222   -0.3754    3.6770 C   0  0  0  0  0  0  0  0  0  0  0  0
    3.6538   -0.8899    3.4925 C   0  0  1  0  0  0  0  0  0  0  0  0
    4.3403   -0.0638    2.3810 C   0  0  0  0  0  0  0  0  0  0  0  0
    3.5146   -0.0485    1.1140 C   0  0  0  0  0  0  0  0  0  0  0  0
    4.1554   -0.0309   -0.1345 C   0  0  0  0  0  0  0  0  0  0  0  0
    3.4083   -0.0091   -1.3079 C   0  0  0  0  0  0  0  0  0  0  0  0
    2.0200   -0.0000   -1.2407 C   0  0  0  0  0  0  0  0  0  0  0  0
    1.2761    0.0121   -2.3982 O   0  0  0  0  0  0  0  0  0  0  0  0
    1.3760    0.0000    0.0000 C   0  0  0  0  0  0  0  0  0  0  0  0
    0.0000    0.0000    0.0000 O   0  0  0  0  0  0  0  0  0  0  0  0
    2.1062   -0.0097    1.2020 C   0  0  0  0  0  0  0  0  0  0  0  0
    6.4005   -0.9719    3.9261 H   0  0  0  0  0  0  0  0  0  0  0  0
    5.6480   -2.5565    4.2315 H   0  0  0  0  0  0  0  0  0  0  0  0
    6.2743   -1.5609    5.5606 H   0  0  0  0  0  0  0  0  0  0  0  0
    4.2990   -1.6160    6.7344 H   0  0  0  0  0  0  0  0  0  0  0  0
    3.4133   -2.5587    5.5320 H   0  0  0  0  0  0  0  0  0  0  0  0
    2.7358    0.1959    6.6888 H   0  0  0  0  0  0  0  0  0  0  0  0
    1.8248   -1.3134    6.8641 H   0  0  0  0  0  0  0  0  0  0  0  0
   -0.1298    0.1253    6.1067 H   0  0  0  0  0  0  0  0  0  0  0  0
   -1.4434    0.8249    4.1413 H   0  0  0  0  0  0  0  0  0  0  0  0
   -0.4672    0.7879    1.9094 H   0  0  0  0  0  0  0  0  0  0  0  0
    3.5573   -1.9321    3.1501 H   0  0  0  0  0  0  0  0  0  0  0  0
    5.3221   -0.4890    2.1459 H   0  0  0  0  0  0  0  0  0  0  0  0
    4.4957    0.9743    2.7038 H   0  0  0  0  0  0  0  0  0  0  0  0
    5.2406   -0.0393   -0.1966 H   0  0  0  0  0  0  0  0  0  0  0  0
    3.9077   -0.0022   -2.2720 H   0  0  0  0  0  0  0  0  0  0  0  0
    0.3311    0.0172   -2.1744 H   0  0  0  0  0  0  0  0  0  0  0  0
   -0.3227    0.0000    0.9159 H   0  0  0  0  0  0  0  0  0  0  0  0
  1  2  1  0
  2  3  1  0
  3  4  1  0
  4  5  1  0
  5  6  2  0
  6  7  1  0
  7  8  2  0
  8  9  1  0
  9 10  2  0
 10 11  1  0
 11 12  1  0
 12 13  1  0
 13 14  2  0
 14 15  1  0
 15 16  2  0
 16 17  1  0
 16 18  1  0
 18 19  1  0
 18 20  2  0
 11  2  1  0
 20 13  1  0
 10  5  1  0
  9 20  1  0
  1 21  1  0
  1 22  1  0
  1 23  1  0
  3 24  1  0
  3 25  1  0
  4 26  1  0
  4 27  1  0
  6 28  1  0
  7 29  1  0
  8 30  1  0
 11 31  1  6
 12 32  1  0
 12 33  1  0
 14 34  1  0
 15 35  1  0
 17 36  1  0
 19 37  1  0
M  END
>  <_MoleculeID>  (1) 
smi0

>  <_InputIndex>  (1) 
0

>  <_InputSMILES>  (1) 
CN1CCc2cccc-3c2[C@H]1Cc1ccc(O)c(O)c-31

>  <_InputInChIKey>  (1) 
VMWNQDUVQKEIOC-CYBMUJFWSA-N

>  <_SMILES>  (1) 
CN1CCc2cccc3c2[C@H]1Cc1ccc(O)c(O)c1-3

>  <_InChIKey>  (1) 
VMWNQDUVQKEIOC-CYBMUJFWSA-N

$$$$
smi0_conf1
     RDKit          3D

 37 40  0  0  0  0  0  0  0  0999 V2000
    5.7448    1.5294    4.6011 C   0  0  0  0  0  0  0  0  0  0  0  0
    4.4432    0.8701    4.7515 N   0  0  0  0  0  0  0  0  0  0  0  0
    3.6895    1.5367    5.8254 C   0  0  0  0  0  0  0  0  0  0  0  0
    2.4433    0.7278    6.1733 C   0  0  0  0  0  0  0  0  0  0  0  0
    1.6396    0.3532    4.9594 C   0  0  0  0  0  0  0  0  0  0  0  0
    0.3216   -0.0852    5.1188 C   0  0  0  0  0  0  0  0  0  0  0  0
   -0.4210   -0.4811    4.0134 C   0  0  0  0  0  0  0  0  0  0  0  0
    0.1474   -0.4490    2.7395 C   0  0  0  0  0  0  0  0  0  0  0  0
    1.4707   -0.0160    2.5395 C   0  0  0  0  0  0  0  0  0  0  0  0
    2.2222    0.3754    3.6770 C   0  0  0  0  0  0  0  0  0  0  0  0
    3.6538    0.8899    3.4925 C   0  0  2  0  0  0  0  0  0  0  0  0
    4.3403    0.0638    2.3810 C   0  0  0  0  0  0  0  0  0  0  0  0
    3.5146    0.0485    1.1140 C   0  0  0  0  0  0  0  0  0  0  0  0
    4.1554    0.0309   -0.1345 C   0  0  0  0  0  0  0  0  0  0  0  0
    3.4083    0.0091   -1.3079 C   0  0  0  0  0  0  0  0  0  0  0  0
    2.0200   -0.0000   -1.2407 C   0  0  0  0  0  0  0  0  0  0  0  0
    1.2761   -0.0121   -2.3982 O   0  0  0  0  0  0  0  0  0  0  0  0
    1.3760   -0.0000    0.0000 C   0  0  0  0  0  0  0  0  0  0  0  0
    0.0000    0.0000    0.0000 O   0  0  0  0  0  0  0  0  0  0  0  0
    2.1062    0.0097    1.2020 C   0  0  0  0  0  0  0  0  0  0  0  0
    6.4005    0.9719    3.9261 H   0  0  0  0  0  0  0  0  0  0  0  0
    5.6480    2.5565    4.2315 H   0  0  0  0  0  0  0  0  0  0  0  0
    6.2743    1.5609    5.5606 H   0  0  0  0  0  0  0  0  0  0  0  0
    4.2990    1.6160    6.7344 H   0  0  0  0  0  0  0  0  0  0  0  0
    3.4133    2.5587    5.5320 H   0  0  0  0  0  0  0  0  0  0  0  0
    2.7358   -0.1959    6.6888 H   0  0  0  0  0  0  0  0  0  0  0  0
    1.8248    1.3134    6.8641 H   0  0  0  0  0  0  0  0  0  0  0  0
   -0.1298   -0.1253    6.1067 H   0  0  0  0  0  0  0  0  0  0  0  0
   -1.4434   -0.8249    4.1413 H   0  0  0  0  0  0  0  0  0  0  0  0
   -0.4672   -0.7879    1.9094 H   0  0  0  0  0  0  0  0  0  0  0  0
    3.5573    1.9321    3.1501 H   0  0  0  0  0  0  0  0  0  0  0  0
    5.3221    0.4890    2.1459 H   0  0  0  0  0  0  0  0  0  0  0  0
    4.4957   -0.9743    2.7038 H   0  0  0  0  0  0  0  0  0  0  0  0
    5.2406    0.0393   -0.1966 H   0  0  0  0  0  0  0  0  0  0  0  0
    3.9077    0.0022   -2.2720 H   0  0  0  0  0  0  0  0  0  0  0  0
    0.3311   -0.0172   -2.1744 H   0  0  0  0  0  0  0  0  0  0  0  0
   -0.3227    0.0000    0.9159 H   0  0  0  0  0  0  0  0  0  0  0  0
  1  2  1  0
  2  3  1  0
  3  4  1  0
  4  5  1  0
  5  6  2  0
  6  7  1  0
  7  8  2  0
  8  9  1  0
  9 10  2  0
 10 11  1  0
 11 12  1  0
 12 13  1  0
 13 14  2  0
 14 15  1  0
 15 16  2  0
 16 17  1  0
 16 18  1  0
 18 19  1  0
 18 20  2  0
 11  2  1  0
 20 13  1  0
 10  5  1  0
  9 20  1  0
  1 21  1  0
  1 22  1  0
  1 23  1  0
  3 24  1  0
  3 25  1  0
  4 26  1  0
  4 27  1  0
  6 28  1  0
  7 29  1  0
  8 30  1  0
 11 31  1  6
 12 32  1  0
 12 33  1  0
 14 34  1  0
 15 35  1  0
 17 36  1  0
 19 37  1  0
M  END
>  <_MoleculeID>  (2) 
smi0

>  <_InputIndex>  (2) 
0

>  <_InputSMILES>  (2) 
CN1CCc2cccc-3c2[C@H]1Cc1ccc(O)c(O)c-31

>  <_InputInChIKey>  (2) 
VMWNQDUVQKEIOC-CYBMUJFWSA-N

>  <_SMILES>  (2) 
CN1CCc2cccc3c2[C@H]1Cc1ccc(O)c(O)c1-3

>  <_InChIKey>  (2) 
VMWNQDUVQKEIOC-CYBMUJFWSA-N

$$$$
smi1_conf0
     RDKit          3D

 41 43  0  0  0  0  0  0  0  0999 V2000
   -0.6538   -0.0000    1.2702 C   0  0  0  0  0  0  0  0  0  0  0  0
    0.0000   -0.0000    0.0000 O   0  0  0  0  0  0  0  0  0  0  0  0
    1.3760    0.0000    0.0000 C   0  0  0  0  0  0  0  0  0  0  0  0
    2.0871   -0.0000    1.2027 C   0  0  0  0  0  0  0  0  0  0  0  0
    3.4898   -0.0010    1.2110 C   0  0  0  0  0  0  0  0  0  0  0  0
    4.2380    0.0009    0.0236 C   0  0  0  0  0  0  0  0  0  0  0  0
    3.4886    0.0155   -1.1687 C   0  0  0  0  0  0  0  0  0  0  0  0
    2.0874    0.0194   -1.1991 C   0  0  0  0  0  0  0  0  0  0  0  0
    1.4106    0.0350   -2.3970 O   0  0  0  0  0  0  0  0  0  0  0  0
    1.0947    1.3030   -2.9475 C   0  0  0  0  0  0  0  0  0  0  0  0
    2.2169    1.8605   -3.8190 C   0  0  0  0  0  0  0  0  0  0  0  0
    1.5211    2.8263   -4.7721 C   0  0  0  0  0  0  0  0  0  0  0  0
    0.0545    2.3962   -4.8169 C   0  0  0  0  0  0  0  0  0  0  0  0
   -0.0331    1.1397   -3.9630 C   0  0  0  0  0  0  0  0  0  0  0  0
    5.7240    0.0004    0.0238 C   0  0  2  0  0  0  0  0  0  0  0  0
    6.2767   -1.1970    0.7840 C   0  0  0  0  0  0  0  0  0  0  0  0
    6.4353   -0.7109    2.1282 N   0  0  0  0  0  0  0  0  0  0  0  0
    6.4544    0.6767    2.2004 C   0  0  0  0  0  0  0  0  0  0  0  0
    6.6206    1.3641    3.1961 O   0  0  0  0  0  0  0  0  0  0  0  0
    6.2795    1.2020    0.7943 C   0  0  0  0  0  0  0  0  0  0  0  0
   -1.7340    0.0000    1.1018 H   0  0  0  0  0  0  0  0  0  0  0  0
   -0.3819    0.8975    1.8343 H   0  0  0  0  0  0  0  0  0  0  0  0
   -0.3819   -0.8975    1.8343 H   0  0  0  0  0  0  0  0  0  0  0  0
    1.5574    0.0042    2.1525 H   0  0  0  0  0  0  0  0  0  0  0  0
    3.9786    0.0043    2.1820 H   0  0  0  0  0  0  0  0  0  0  0  0
    4.0274    0.0242   -2.1154 H   0  0  0  0  0  0  0  0  0  0  0  0
    0.7747    2.0200   -2.1790 H   0  0  0  0  0  0  0  0  0  0  0  0
    2.9963    2.3568   -3.2326 H   0  0  0  0  0  0  0  0  0  0  0  0
    2.7058    1.0535   -4.3793 H   0  0  0  0  0  0  0  0  0  0  0  0
    1.9816    2.7991   -5.7649 H   0  0  0  0  0  0  0  0  0  0  0  0
    1.5971    3.8553   -4.4028 H   0  0  0  0  0  0  0  0  0  0  0  0
   -0.2884    2.2135   -5.8400 H   0  0  0  0  0  0  0  0  0  0  0  0
   -0.5757    3.1871   -4.3939 H   0  0  0  0  0  0  0  0  0  0  0  0
    0.1236    0.2433   -4.5764 H   0  0  0  0  0  0  0  0  0  0  0  0
   -1.0094    1.0294   -3.4804 H   0  0  0  0  0  0  0  0  0  0  0  0
    6.0580    0.0022   -1.0188 H   0  0  0  0  0  0  0  0  0  0  0  0
    5.6256   -2.0760    0.7843 H   0  0  0  0  0  0  0  0  0  0  0  0
    7.2691   -1.4811    0.4183 H   0  0  0  0  0  0  0  0  0  0  0  0
    6.5725   -1.3133    2.9337 H   0  0  0  0  0  0  0  0  0  0  0  0
    5.6144    2.0704    0.7868 H   0  0  0  0  0  0  0  0  0  0  0  0
    7.2656    1.4897    0.4142 H   0  0  0  0  0  0  0  0  0  0  0  0
  1  2  1  0
  2  3  1  0
  3  4  2  0
  4  5  1  0
  5  6  2  0
  6  7  1  0
  7  8  2  0
  8  9  1  0
  9 10  1  0
 10 11  1  0
 11 12  1  0
 12 13  1  0
 13 14  1  0
 15  6  1  0
 15 16  1  0
 16 17  1  0
 17 18  1  0
 18 19  2  0
 18 20  1  0
  8  3  1  0
 14 10  1  0
 20 15  1  0
  1 21  1  0
  1 22  1  0
  1 23  1  0
  4 24  1  0
  5 25  1  0
  7 26  1  0
 10 27  1  0
 11 28  1  0
 11 29  1  0
 12 30  1  0
 12 31  1  0
 13 32  1  0
 13 33  1  0
 14 34  1  0
 14 35  1  0
 15 36  1  6
 16 37  1  0
 16 38  1  0
 17 39  1  0
 20 40  1  0
 20 41  1  0
M  END
>  <_MoleculeID>  (3) 
smi1

>  <_InputIndex>  (3) 
1

>  <_InputSMILES>  (3) 
COc1ccc(cc1OC1CCCC1)[C@@H]1CNC(=O)C1

>  <_InputInChIKey>  (3) 
HJORMJIFDVBMOB-LBPRGKRZSA-N

>  <_SMILES>  (3) 
COc1ccc([C@@H]2CNC(=O)C2)cc1OC1CCCC1

>  <_InChIKey>  (3) 
HJORMJIFDVBMOB-LBPRGKRZSA-N

$$$$
smi1_conf1
     RDKit          3D

 41 43  0  0  0  0  0  0  0  0999 V2000
   -0.6538   -0.0000    1.2702 C   0  0  0  0  0  0  0  0  0  0  0  0
    0.0000   -0.0000    0.0000 O   0  0  0  0  0  0  0  0  0  0  0  0
    1.3760    0.0000    0.0000 C   0  0  0  0  0  0  0  0  0  0  0  0
    2.0871    0.0000    1.2027 C   0  0  0  0  0  0  0  0  0  0  0  0
    3.4898   -0.0010    1.2110 C   0  0  0  0  0  0  0  0  0  0  0  0
    4.2380    0.0009    0.0236 C   0  0  0  0  0  0  0  0  0  0  0  0
    3.4886    0.0155   -1.1687 C   0  0  0  0  0  0  0  0  0  0  0  0
    2.0874    0.0194   -1.1991 C   0  0  0  0  0  0  0  0  0  0  0  0
    1.4106    0.0350   -2.3970 O   0  0  0  0  0  0  0  0  0  0  0  0
    1.0947    1.3030   -2.9475 C   0  0  0  0  0  0  0  0  0  0  0  0
   -0.4199    1.4249   -3.1415 C   0  0  0  0  0  0  0  0  0  0  0  0
   -0.6444    1.5270   -4.6493 C   0  0  0  0  0  0  0  0  0  0  0  0
    0.6174    0.9541   -5.2727 C   0  0  0  0  0  0  0  0  0  0  0  0
    1.7138    1.4396   -4.3357 C   0  0  0  0  0  0  0  0  0  0  0  0
    5.7240    0.0004    0.0238 C   0  0  1  0  0  0  0  0  0  0  0  0
    6.2775    1.1946    0.7883 C   0  0  0  0  0  0  0  0  0  0  0  0
    6.4358    0.7035    2.1308 N   0  0  0  0  0  0  0  0  0  0  0  0
    6.4539   -0.6843    2.1980 C   0  0  0  0  0  0  0  0  0  0  0  0
    6.6197   -1.3754    3.1912 O   0  0  0  0  0  0  0  0  0  0  0  0
    6.2787   -1.2044    0.7899 C   0  0  0  0  0  0  0  0  0  0  0  0
   -1.7340    0.0000    1.1018 H   0  0  0  0  0  0  0  0  0  0  0  0
   -0.3819    0.8975    1.8343 H   0  0  0  0  0  0  0  0  0  0  0  0
   -0.3819   -0.8975    1.8343 H   0  0  0  0  0  0  0  0  0  0  0  0
    1.5574    0.0042    2.1525 H   0  0  0  0  0  0  0  0  0  0  0  0
    3.9786    0.0043    2.1820 H   0  0  0  0  0  0  0  0  0  0  0  0
    4.0274    0.0242   -2.1154 H   0  0  0  0  0  0  0  0  0  0  0  0
    1.4800    2.0619   -2.2601 H   0  0  0  0  0  0  0  0  0  0  0  0
   -0.9515    0.5601   -2.7289 H   0  0  0  0  0  0  0  0  0  0  0  0
   -0.8105    2.3214   -2.6481 H   0  0  0  0  0  0  0  0  0  0  0  0
   -1.5451    0.9954   -4.9703 H   0  0  0  0  0  0  0  0  0  0  0  0
   -0.7574    2.5796   -4.9359 H   0  0  0  0  0  0  0  0  0  0  0  0
    0.7662    1.2984   -6.3001 H   0  0  0  0  0  0  0  0  0  0  0  0
    0.5756   -0.1413   -5.2803 H   0  0  0  0  0  0  0  0  0  0  0  0
    1.9306    2.4936   -4.5459 H   0  0  0  0  0  0  0  0  0  0  0  0
    2.6334    0.8593   -4.4570 H   0  0  0  0  0  0  0  0  0  0  0  0
    6.0580    0.0022   -1.0188 H   0  0  0  0  0  0  0  0  0  0  0  0
    5.6270    2.0741    0.7919 H   0  0  0  0  0  0  0  0  0  0  0  0
    7.2701    1.4794    0.4237 H   0  0  0  0  0  0  0  0  0  0  0  0
    6.5733    1.3030    2.9384 H   0  0  0  0  0  0  0  0  0  0  0  0
    5.6130   -2.0723    0.7793 H   0  0  0  0  0  0  0  0  0  0  0  0
    7.2647   -1.4913    0.4088 H   0  0  0  0  0  0  0  0  0  0  0  0
  1  2  1  0
  2  3  1  0
  3  4  2  0
  4  5  1  0
  5  6  2  0
  6  7  1  0
  7  8  2  0
  8  9  1  0
  9 10  1  0
 10 11  1  0
 11 12  1  0
 12 13  1  0
 13 14  1  0
 15  6  1  0
 15 16  1  0
 16 17  1  0
 17 18  1  0
 18 19  2  0
 18 20  1  0
  8  3  1  0
 14 10  1  0
 20 15  1  0
  1 21  1  0
  1 22  1  0
  1 23  1  0
  4 24  1  0
  5 25  1  0
  7 26  1  0
 10 27  1  0
 11 28  1  0
 11 29  1  0
 12 30  1  0
 12 31  1  0
 13 32  1  0
 13 33  1  0
 14 34  1  0
 14 35  1  0
 15 36  1  6
 16 37  1  0
 16 38  1  0
 17 39  1  0
 20 40  1  0
 20 41  1  0
M  END
>  <_MoleculeID>  (4) 
smi1

>  <_InputIndex>  (4) 
1

>  <_InputSMILES>  (4) 
COc1ccc(cc1OC1CCCC1)[C@@H]1CNC(=O)C1

>  <_InputInChIKey>  (4) 
HJORMJIFDVBMOB-LBPRGKRZSA-N

>  <_SMILES>  (4) 
COc1ccc([C@@H]2CNC(=O)C2)cc1OC1CCCC1

>  <_InChIKey>  (4) 
HJORMJIFDVBMOB-LBPRGKRZSA-N

$$$$
smi1_conf2
     RDKit          3D

 41 43  0  0  0  0  0  0  0  0999 V2000
   -0.6538   -0.0000    1.2702 C   0  0  0  0  0  0  0  0  0  0  0  0
    0.0000   -0.0000    0.0000 O   0  0  0  0  0  0  0  0  0  0  0  0
    1.3760    0.0000    0.0000 C   0  0  0  0  0  0  0  0  0  0  0  0
    2.0871   -0.0000    1.2027 C   0  0  0  0  0  0  0  0  0  0  0  0
    3.4898   -0.0010    1.2110 C   0  0  0  0  0  0  0  0  0  0  0  0
    4.2380    0.0009    0.0236 C   0  0  0  0  0  0  0  0  0  0  0  0
    3.4886    0.0155   -1.1687 C   0  0  0  0  0  0  0  0  0  0  0  0
    2.0874    0.0194   -1.1991 C   0  0  0  0  0  0  0  0  0  0  0  0
    1.4106    0.0350   -2.3970 O   0  0  0  0  0  0  0  0  0  0  0  0
    1.0947    1.3030   -2.9475 C   0  0  0  0  0  0  0  0  0  0  0  0
    2.2689    1.9036   -3.7040 C   0  0  0  0  0  0  0  0  0  0  0  0
    1.6053    2.9684   -4.5605 C   0  0  0  0  0  0  0  0  0  0  0  0
    0.2675    2.3581   -4.9753 C   0  0  0  0  0  0  0  0  0  0  0  0
   -0.0033    1.2111   -4.0010 C   0  0  0  0  0  0  0  0  0  0  0  0
    5.7240    0.0004    0.0238 C   0  0  2  0  0  0  0  0  0  0  0  0
    6.2777    1.1974   -0.7363 C   0  0  0  0  0  0  0  0  0  0  0  0
    6.4363    0.7112   -2.0805 N   0  0  0  0  0  0  0  0  0  0  0  0
    6.4545   -0.6764   -2.1527 C   0  0  0  0  0  0  0  0  0  0  0  0
    6.6205   -1.3639   -3.1483 O   0  0  0  0  0  0  0  0  0  0  0  0
    6.2789   -1.2016   -0.7466 C   0  0  0  0  0  0  0  0  0  0  0  0
   -1.7340    0.0000    1.1018 H   0  0  0  0  0  0  0  0  0  0  0  0
   -0.3819    0.8975    1.8343 H   0  0  0  0  0  0  0  0  0  0  0  0
   -0.3819   -0.8975    1.8343 H   0  0  0  0  0  0  0  0  0  0  0  0
    1.5574    0.0042    2.1525 H   0  0  0  0  0  0  0  0  0  0  0  0
    3.9786    0.0043    2.1820 H   0  0  0  0  0  0  0  0  0  0  0  0
    4.0274    0.0242   -2.1154 H   0  0  0  0  0  0  0  0  0  0  0  0
    0.7846    1.9679   -2.1331 H   0  0  0  0  0  0  0  0  0  0  0  0
    2.7636    1.1492   -4.3278 H   0  0  0  0  0  0  0  0  0  0  0  0
    3.0260    2.3172   -3.0308 H   0  0  0  0  0  0  0  0  0  0  0  0
    2.2171    3.2507   -5.4223 H   0  0  0  0  0  0  0  0  0  0  0  0
    1.4294    3.8718   -3.9641 H   0  0  0  0  0  0  0  0  0  0  0  0
   -0.5295    3.1084   -4.9472 H   0  0  0  0  0  0  0  0  0  0  0  0
    0.3193    1.9734   -6.0000 H   0  0  0  0  0  0  0  0  0  0  0  0
   -0.9969    1.2896   -3.5472 H   0  0  0  0  0  0  0  0  0  0  0  0
    0.0274    0.2491   -4.5264 H   0  0  0  0  0  0  0  0  0  0  0  0
    6.0577   -0.0016    1.0665 H   0  0  0  0  0  0  0  0  0  0  0  0
    5.6272    2.0769   -0.7368 H   0  0  0  0  0  0  0  0  0  0  0  0
    7.2702    1.4808   -0.3704 H   0  0  0  0  0  0  0  0  0  0  0  0
    6.5741    1.3135   -2.8859 H   0  0  0  0  0  0  0  0  0  0  0  0
    5.6132   -2.0695   -0.7393 H   0  0  0  0  0  0  0  0  0  0  0  0
    7.2648   -1.4899   -0.3662 H   0  0  0  0  0  0  0  0  0  0  0  0
  1  2  1  0
  2  3  1  0
  3  4  2  0
  4  5  1  0
  5  6  2  0
  6  7  1  0
  7  8  2  0
  8  9  1  0
  9 10  1  0
 10 11  1  0
 11 12  1  0
 12 13  1  0
 13 14  1  0
 15  6  1  0
 15 16  1  0
 16 17  1  0
 17 18  1  0
 18 19  2  0
 18 20  1  0
  8  3  1  0
 14 10  1  0
 20 15  1  0
  1 21  1  0
  1 22  1  0
  1 23  1  0
  4 24  1  0
  5 25  1  0
  7 26  1  0
 10 27  1  0
 11 28  1  0
 11 29  1  0
 12 30  1  0
 12 31  1  0
 13 32  1  0
 13 33  1  0
 14 34  1  0
 14 35  1  0
 15 36  1  1
 16 37  1  0
 16 38  1  0
 17 39  1  0
 20 40  1  0
 20 41  1  0
M  END
>  <_MoleculeID>  (5) 
smi1

>  <_InputIndex>  (5) 
1

>  <_InputSMILES>  (5) 
COc1ccc(cc1OC1CCCC1)[C@@H]1CNC(=O)C1

>  <_InputInChIKey>  (5) 
HJORMJIFDVBMOB-LBPRGKRZSA-N

>  <_SMILES>  (5) 
COc1ccc([C@@H]2CNC(=O)C2)cc1OC1CCCC1

>  <_InChIKey>  (5) 
HJORMJIFDVBMOB-LBPRGKRZSA-N

$$$$
smi1_conf3
     RDKit          3D

 41 43  0  0  0  0  0  0  0  0999 V2000
   -0.6538   -0.0000    1.2702 C   0  0  0  0  0  0  0  0  0  0  0  0
    0.0000   -0.0000    0.0000 O   0  0  0  0  0  0  0  0  0  0  0  0
    1.3760    0.0000    0.0000 C   0  0  0  0  0  0  0  0  0  0  0  0
    2.0871    0.0000    1.2027 C   0  0  0  0  0  0  0  0  0  0  0  0
    3.4898   -0.0010    1.2110 C   0  0  0  0  0  0  0  0  0  0  0  0
    4.2380    0.0009    0.0236 C   0  0  0  0  0  0  0  0  0  0  0  0
    3.4886    0.0155   -1.1687 C   0  0  0  0  0  0  0  0  0  0  0  0
    2.0874    0.0194   -1.1991 C   0  0  0  0  0  0  0  0  0  0  0  0
    1.4106    0.0350   -2.3970 O   0  0  0  0  0  0  0  0  0  0  0  0
    1.0882   -1.2184   -2.9766 C   0  0  0  0  0  0  0  0  0  0  0  0
    1.7066   -1.3254   -4.3676 C   0  0  0  0  0  0  0  0  0  0  0  0
    0.6140   -0.8075   -5.2917 C   0  0  0  0  0  0  0  0  0  0  0  0
   -0.6523   -1.3868   -4.6836 C   0  0  0  0  0  0  0  0  0  0  0  0
   -0.4269   -1.3277   -3.1736 C   0  0  0  0  0  0  0  0  0  0  0  0
    5.7240    0.0004    0.0238 C   0  0  1  0  0  0  0  0  0  0  0  0
    6.2769   -1.1942   -0.7406 C   0  0  0  0  0  0  0  0  0  0  0  0
    6.4359   -0.7032   -2.0830 N   0  0  0  0  0  0  0  0  0  0  0  0
    6.4549    0.6846   -2.1502 C   0  0  0  0  0  0  0  0  0  0  0  0
    6.6214    1.3756   -3.1434 O   0  0  0  0  0  0  0  0  0  0  0  0
    6.2797    1.2048   -0.7422 C   0  0  0  0  0  0  0  0  0  0  0  0
   -1.7340    0.0000    1.1018 H   0  0  0  0  0  0  0  0  0  0  0  0
   -0.3819    0.8975    1.8343 H   0  0  0  0  0  0  0  0  0  0  0  0
   -0.3819   -0.8975    1.8343 H   0  0  0  0  0  0  0  0  0  0  0  0
    1.5574    0.0042    2.1525 H   0  0  0  0  0  0  0  0  0  0  0  0
    3.9786    0.0043    2.1820 H   0  0  0  0  0  0  0  0  0  0  0  0
    4.0274    0.0242   -2.1154 H   0  0  0  0  0  0  0  0  0  0  0  0
    1.4695   -1.9949   -2.3069 H   0  0  0  0  0  0  0  0  0  0  0  0
    1.9151   -2.3755   -4.6041 H   0  0  0  0  0  0  0  0  0  0  0  0
    2.6306   -0.7493   -4.4743 H   0  0  0  0  0  0  0  0  0  0  0  0
    0.7605   -1.1260   -6.3277 H   0  0  0  0  0  0  0  0  0  0  0  0
    0.5804    0.2880   -5.2707 H   0  0  0  0  0  0  0  0  0  0  0  0
   -1.5485   -0.8391   -4.9896 H   0  0  0  0  0  0  0  0  0  0  0  0
   -0.7742   -2.4302   -4.9987 H   0  0  0  0  0  0  0  0  0  0  0  0
   -0.9543   -0.4721   -2.7370 H   0  0  0  0  0  0  0  0  0  0  0  0
   -0.8216   -2.2359   -2.7052 H   0  0  0  0  0  0  0  0  0  0  0  0
    6.0577   -0.0016    1.0665 H   0  0  0  0  0  0  0  0  0  0  0  0
    5.6258   -2.0733   -0.7443 H   0  0  0  0  0  0  0  0  0  0  0  0
    7.2692   -1.4797   -0.3757 H   0  0  0  0  0  0  0  0  0  0  0  0
    6.5732   -1.3028   -2.8906 H   0  0  0  0  0  0  0  0  0  0  0  0
    5.6146    2.0731   -0.7318 H   0  0  0  0  0  0  0  0  0  0  0  0
    7.2657    1.4911   -0.3608 H   0  0  0  0  0  0  0  0  0  0  0  0
  1  2  1  0
  2  3  1  0
  3  4  2  0
  4  5  1  0
  5  6  2  0
  6  7  1  0
  7  8  2  0
  8  9  1  0
  9 10  1  0
 10 11  1  0
 11 12  1  0
 12 13  1  0
 13 14  1  0
 15  6  1  0
 15 16  1  0
 16 17  1  0
 17 18  1  0
 18 19  2  0
 18 20  1  0
  8  3  1  0
 14 10  1  0
 20 15  1  0
  1 21  1  0
  1 22  1  0
  1 23  1  0
  4 24  1  0
  5 25  1  0
  7 26  1  0
 10 27  1  0
 11 28  1  0
 11 29  1  0
 12 30  1  0
 12 31  1  0
 13 32  1  0
 13 33  1  0
 14 34  1  0
 14 35  1  0
 15 36  1  1
 16 37  1  0
 16 38  1  0
 17 39  1  0
 20 40  1  0
 20 41  1  0
M  END
>  <_MoleculeID>  (6) 
smi1

>  <_InputIndex>  (6) 
1

>  <_InputSMILES>  (6) 
COc1ccc(cc1OC1CCCC1)[C@@H]1CNC(=O)C1

>  <_InputInChIKey>  (6) 
HJORMJIFDVBMOB-LBPRGKRZSA-N

>  <_SMILES>  (6) 
COc1ccc([C@@H]2CNC(=O)C2)cc1OC1CCCC1

>  <_InChIKey>  (6) 
HJORMJIFDVBMOB-LBPRGKRZSA-N

$$$$
smi1_conf4
     RDKit          3D

 41 43  0  0  0  0  0  0  0  0999 V2000
   -0.6538   -0.0000    1.2702 C   0  0  0  0  0  0  0  0  0  0  0  0
    0.0000   -0.0000    0.0000 O   0  0  0  0  0  0  0  0  0  0  0  0
    1.3760    0.0000    0.0000 C   0  0  0  0  0  0  0  0  0  0  0  0
    2.0871   -0.0000    1.2027 C   0  0  0  0  0  0  0  0  0  0  0  0
    3.4898   -0.0010    1.2110 C   0  0  0  0  0  0  0  0  0  0  0  0
    4.2380    0.0009    0.0236 C   0  0  0  0  0  0  0  0  0  0  0  0
    3.4886    0.0155   -1.1687 C   0  0  0  0  0  0  0  0  0  0  0  0
    2.0874    0.0194   -1.1991 C   0  0  0  0  0  0  0  0  0  0  0  0
    1.4106    0.0350   -2.3970 O   0  0  0  0  0  0  0  0  0  0  0  0
    1.0947    1.3030   -2.9475 C   0  0  0  0  0  0  0  0  0  0  0  0
    0.0944    1.2111   -4.0967 C   0  0  0  0  0  0  0  0  0  0  0  0
    0.3440    2.4661   -4.9261 C   0  0  0  0  0  0  0  0  0  0  0  0
    1.7656    2.9198   -4.5929 C   0  0  0  0  0  0  0  0  0  0  0  0
    2.3268    1.8617   -3.6541 C   0  0  0  0  0  0  0  0  0  0  0  0
    5.7240    0.0004    0.0238 C   0  0  1  0  0  0  0  0  0  0  0  0
    6.2769   -1.1942   -0.7406 C   0  0  0  0  0  0  0  0  0  0  0  0
    6.4359   -0.7032   -2.0830 N   0  0  0  0  0  0  0  0  0  0  0  0
    6.4549    0.6846   -2.1502 C   0  0  0  0  0  0  0  0  0  0  0  0
    6.6214    1.3756   -3.1434 O   0  0  0  0  0  0  0  0  0  0  0  0
    6.2797    1.2048   -0.7422 C   0  0  0  0  0  0  0  0  0  0  0  0
   -1.7340    0.0000    1.1018 H   0  0  0  0  0  0  0  0  0  0  0  0
   -0.3819    0.8975    1.8343 H   0  0  0  0  0  0  0  0  0  0  0  0
   -0.3819   -0.8975    1.8343 H   0  0  0  0  0  0  0  0  0  0  0  0
    1.5574    0.0042    2.1525 H   0  0  0  0  0  0  0  0  0  0  0  0
    3.9786    0.0043    2.1820 H   0  0  0  0  0  0  0  0  0  0  0  0
    4.0274    0.0242   -2.1154 H   0  0  0  0  0  0  0  0  0  0  0  0
    0.7747    2.0200   -2.1790 H   0  0  0  0  0  0  0  0  0  0  0  0
   -0.9411    1.1520   -3.7480 H   0  0  0  0  0  0  0  0  0  0  0  0
    0.2797    0.3112   -4.6968 H   0  0  0  0  0  0  0  0  0  0  0  0
    0.2243    2.2614   -5.9949 H   0  0  0  0  0  0  0  0  0  0  0  0
   -0.3708    3.2532   -4.6604 H   0  0  0  0  0  0  0  0  0  0  0  0
    2.3819    3.0306   -5.4905 H   0  0  0  0  0  0  0  0  0  0  0  0
    1.7347    3.8941   -4.0915 H   0  0  0  0  0  0  0  0  0  0  0  0
    2.8398    1.0744   -4.2209 H   0  0  0  0  0  0  0  0  0  0  0  0
    3.0554    2.2731   -2.9484 H   0  0  0  0  0  0  0  0  0  0  0  0
    6.0577   -0.0016    1.0665 H   0  0  0  0  0  0  0  0  0  0  0  0
    5.6258   -2.0733   -0.7443 H   0  0  0  0  0  0  0  0  0  0  0  0
    7.2692   -1.4797   -0.3757 H   0  0  0  0  0  0  0  0  0  0  0  0
    6.5732   -1.3028   -2.8906 H   0  0  0  0  0  0  0  0  0  0  0  0
    5.6146    2.0731   -0.7318 H   0  0  0  0  0  0  0  0  0  0  0  0
    7.2657    1.4911   -0.3608 H   0  0  0  0  0  0  0  0  0  0  0  0
  1  2  1  0
  2  3  1  0
  3  4  2  0
  4  5  1  0
  5  6  2  0
  6  7  1  0
  7  8  2  0
  8  9  1  0
  9 10  1  0
 10 11  1  0
 11 12  1  0
 12 13  1  0
 13 14  1  0
 15  6  1  0
 15 16  1  0
 16 17  1  0
 17 18  1  0
 18 19  2  0
 18 20  1  0
  8  3  1  0
 14 10  1  0
 20 15  1  0
  1 21  1  0
  1 22  1  0
  1 23  1  0
  4 24  1  0
  5 25  1  0
  7 26  1  0
 10 27  1  0
 11 28  1  0
 11 29  1  0
 12 30  1  0
 12 31  1  0
 13 32  1  0
 13 33  1  0
 14 34  1  0
 14 35  1  0
 15 36  1  1
 16 37  1  0
 16 38  1  0
 17 39  1  0
 20 40  1  0
 20 41  1  0
M  END
>  <_MoleculeID>  (7) 
smi1

>  <_InputIndex>  (7) 
1

>  <_InputSMILES>  (7) 
COc1ccc(cc1OC1CCCC1)[C@@H]1CNC(=O)C1

>  <_InputInChIKey>  (7) 
HJORMJIFDVBMOB-LBPRGKRZSA-N

>  <_SMILES>  (7) 
COc1ccc([C@@H]2CNC(=O)C2)cc1OC1CCCC1

>  <_InChIKey>  (7) 
HJORMJIFDVBMOB-LBPRGKRZSA-N

$$$$
smi1_conf5
     RDKit          3D

 41 43  0  0  0  0  0  0  0  0999 V2000
   -0.6538   -0.0000    1.2702 C   0  0  0  0  0  0  0  0  0  0  0  0
    0.0000   -0.0000    0.0000 O   0  0  0  0  0  0  0  0  0  0  0  0
    1.3760    0.0000    0.0000 C   0  0  0  0  0  0  0  0  0  0  0  0
    2.0871    0.0000    1.2027 C   0  0  0  0  0  0  0  0  0  0  0  0
    3.4898   -0.0010    1.2110 C   0  0  0  0  0  0  0  0  0  0  0  0
    4.2380    0.0009    0.0236 C   0  0  0  0  0  0  0  0  0  0  0  0
    3.4886    0.0155   -1.1687 C   0  0  0  0  0  0  0  0  0  0  0  0
    2.0874    0.0194   -1.1991 C   0  0  0  0  0  0  0  0  0  0  0  0
    1.4106    0.0350   -2.3970 O   0  0  0  0  0  0  0  0  0  0  0  0
    1.0947    1.3030   -2.9475 C   0  0  0  0  0  0  0  0  0  0  0  0
    0.7572    1.2130   -4.4274 C   0  0  0  0  0  0  0  0  0  0  0  0
    0.0310    2.5222   -4.6848 C   0  0  0  0  0  0  0  0  0  0  0  0
   -0.7839    2.7726   -3.4171 C   0  0  0  0  0  0  0  0  0  0  0  0
   -0.1641    1.8979   -2.3267 C   0  0  0  0  0  0  0  0  0  0  0  0
    5.7240    0.0004    0.0238 C   0  0  2  0  0  0  0  0  0  0  0  0
    6.2777    1.1974   -0.7363 C   0  0  0  0  0  0  0  0  0  0  0  0
    6.4363    0.7112   -2.0805 N   0  0  0  0  0  0  0  0  0  0  0  0
    6.4545   -0.6764   -2.1527 C   0  0  0  0  0  0  0  0  0  0  0  0
    6.6205   -1.3639   -3.1483 O   0  0  0  0  0  0  0  0  0  0  0  0
    6.2789   -1.2016   -0.7466 C   0  0  0  0  0  0  0  0  0  0  0  0
   -1.7340    0.0000    1.1018 H   0  0  0  0  0  0  0  0  0  0  0  0
   -0.3819    0.8975    1.8343 H   0  0  0  0  0  0  0  0  0  0  0  0
   -0.3819   -0.8975    1.8343 H   0  0  0  0  0  0  0  0  0  0  0  0
    1.5574    0.0042    2.1525 H   0  0  0  0  0  0  0  0  0  0  0  0
    3.9786    0.0043    2.1820 H   0  0  0  0  0  0  0  0  0  0  0  0
    4.0274    0.0242   -2.1154 H   0  0  0  0  0  0  0  0  0  0  0  0
    1.9482    1.9725   -2.7904 H   0  0  0  0  0  0  0  0  0  0  0  0
    0.1052    0.3549   -4.6317 H   0  0  0  0  0  0  0  0  0  0  0  0
    1.6507    1.0986   -5.0486 H   0  0  0  0  0  0  0  0  0  0  0  0
   -0.5968    2.4812   -5.5797 H   0  0  0  0  0  0  0  0  0  0  0  0
    0.7577    3.3320   -4.8221 H   0  0  0  0  0  0  0  0  0  0  0  0
   -0.7650    3.8327   -3.1436 H   0  0  0  0  0  0  0  0  0  0  0  0
   -1.8322    2.4923   -3.5697 H   0  0  0  0  0  0  0  0  0  0  0  0
    0.0717    2.4762   -1.4271 H   0  0  0  0  0  0  0  0  0  0  0  0
   -0.8672    1.1138   -2.0211 H   0  0  0  0  0  0  0  0  0  0  0  0
    6.0577   -0.0016    1.0665 H   0  0  0  0  0  0  0  0  0  0  0  0
    5.6272    2.0769   -0.7368 H   0  0  0  0  0  0  0  0  0  0  0  0
    7.2702    1.4808   -0.3704 H   0  0  0  0  0  0  0  0  0  0  0  0
    6.5741    1.3135   -2.8859 H   0  0  0  0  0  0  0  0  0  0  0  0
    5.6132   -2.0695   -0.7393 H   0  0  0  0  0  0  0  0  0  0  0  0
    7.2648   -1.4899   -0.3662 H   0  0  0  0  0  0  0  0  0  0  0  0
  1  2  1  0
  2  3  1  0
  3  4  2  0
  4  5  1  0
  5  6  2  0
  6  7  1  0
  7  8  2  0
  8  9  1  0
  9 10  1  0
 10 11  1  0
 11 12  1  0
 12 13  1  0
 13 14  1  0
 15  6  1  0
 15 16  1  0
 16 17  1  0
 17 18  1  0
 18 19  2  0
 18 20  1  0
  8  3  1  0
 14 10  1  0
 20 15  1  0
  1 21  1  0
  1 22  1  0
  1 23  1  0
  4 24  1  0
  5 25  1  0
  7 26  1  0
 10 27  1  0
 11 28  1  0
 11 29  1  0
 12 30  1  0
 12 31  1  0
 13 32  1  0
 13 33  1  0
 14 34  1  0
 14 35  1  0
 15 36  1  1
 16 37  1  0
 16 38  1  0
 17 39  1  0
 20 40  1  0
 20 41  1  0
M  END
>  <_MoleculeID>  (8) 
smi1

>  <_InputIndex>  (8) 
1

>  <_InputSMILES>  (8) 
COc1ccc(cc1OC1CCCC1)[C@@H]1CNC(=O)C1

>  <_InputInChIKey>  (8) 
HJORMJIFDVBMOB-LBPRGKRZSA-N

>  <_SMILES>  (8) 
COc1ccc([C@@H]2CNC(=O)C2)cc1OC1CCCC1

>  <_InChIKey>  (8) 
HJORMJIFDVBMOB-LBPRGKRZSA-N

$$$$
smi1_conf6
     RDKit          3D

 41 43  0  0  0  0  0  0  0  0999 V2000
   -0.6538   -0.0000    1.2702 C   0  0  0  0  0  0  0  0  0  0  0  0
    0.0000   -0.0000    0.0000 O   0  0  0  0  0  0  0  0  0  0  0  0
    1.3760    0.0000    0.0000 C   0  0  0  0  0  0  0  0  0  0  0  0
    2.0871    0.0000    1.2027 C   0  0  0  0  0  0  0  0  0  0  0  0
    3.4898   -0.0010    1.2110 C   0  0  0  0  0  0  0  0  0  0  0  0
    4.2380    0.0009    0.0236 C   0  0  0  0  0  0  0  0  0  0  0  0
    3.4886    0.0155   -1.1687 C   0  0  0  0  0  0  0  0  0  0  0  0
    2.0874    0.0194   -1.1991 C   0  0  0  0  0  0  0  0  0  0  0  0
    1.4106    0.0350   -2.3970 O   0  0  0  0  0  0  0  0  0  0  0  0
    1.0882   -1.2184   -2.9766 C   0  0  0  0  0  0  0  0  0  0  0  0
   -0.0194   -1.0457   -4.0121 C   0  0  0  0  0  0  0  0  0  0  0  0
    0.7336   -0.8269   -5.3163 C   0  0  0  0  0  0  0  0  0  0  0  0
    1.8959   -1.7996   -5.2084 C   0  0  0  0  0  0  0  0  0  0  0  0
    2.2994   -1.7695   -3.7351 C   0  0  0  0  0  0  0  0  0  0  0  0
    5.7240    0.0004    0.0238 C   0  0  2  0  0  0  0  0  0  0  0  0
    6.2767   -1.1970    0.7840 C   0  0  0  0  0  0  0  0  0  0  0  0
    6.4353   -0.7109    2.1282 N   0  0  0  0  0  0  0  0  0  0  0  0
    6.4544    0.6767    2.2004 C   0  0  0  0  0  0  0  0  0  0  0  0
    6.6206    1.3641    3.1961 O   0  0  0  0  0  0  0  0  0  0  0  0
    6.2795    1.2020    0.7943 C   0  0  0  0  0  0  0  0  0  0  0  0
   -1.7340    0.0000    1.1018 H   0  0  0  0  0  0  0  0  0  0  0  0
   -0.3819    0.8975    1.8343 H   0  0  0  0  0  0  0  0  0  0  0  0
   -0.3819   -0.8975    1.8343 H   0  0  0  0  0  0  0  0  0  0  0  0
    1.5574    0.0042    2.1525 H   0  0  0  0  0  0  0  0  0  0  0  0
    3.9786    0.0043    2.1820 H   0  0  0  0  0  0  0  0  0  0  0  0
    4.0274    0.0242   -2.1154 H   0  0  0  0  0  0  0  0  0  0  0  0
    0.7785   -1.8830   -2.1646 H   0  0  0  0  0  0  0  0  0  0  0  0
   -0.6107   -1.9662   -4.0839 H   0  0  0  0  0  0  0  0  0  0  0  0
   -0.6911   -0.2111   -3.7901 H   0  0  0  0  0  0  0  0  0  0  0  0
    0.1100   -1.0206   -6.1937 H   0  0  0  0  0  0  0  0  0  0  0  0
    1.1031    0.2033   -5.3784 H   0  0  0  0  0  0  0  0  0  0  0  0
    2.7250   -1.5315   -5.8698 H   0  0  0  0  0  0  0  0  0  0  0  0
    1.5642   -2.8091   -5.4804 H   0  0  0  0  0  0  0  0  0  0  0  0
    3.1867   -1.1431   -3.5899 H   0  0  0  0  0  0  0  0  0  0  0  0
    2.5485   -2.7820   -3.3993 H   0  0  0  0  0  0  0  0  0  0  0  0
    6.0580    0.0022   -1.0188 H   0  0  0  0  0  0  0  0  0  0  0  0
    5.6256   -2.0760    0.7843 H   0  0  0  0  0  0  0  0  0  0  0  0
    7.2691   -1.4811    0.4183 H   0  0  0  0  0  0  0  0  0  0  0  0
    6.5725   -1.3133    2.9337 H   0  0  0  0  0  0  0  0  0  0  0  0
    5.6144    2.0704    0.7868 H   0  0  0  0  0  0  0  0  0  0  0  0
    7.2656    1.4897    0.4142 H   0  0  0  0  0  0  0  0  0  0  0  0
  1  2  1  0
  2  3  1  0
  3  4  2  0
  4  5  1  0
  5  6  2  0
  6  7  1  0
  7  8  2  0
  8  9  1  0
  9 10  1  0
 10 11  1  0
 11 12  1  0
 12 13  1  0
 13 14  1  0
 15  6  1  0
 15 16  1  0
 16 17  1  0
 17 18  1  0
 18 19  2  0
 18 20  1  0
  8  3  1  0
 14 10  1  0
 20 15  1  0
  1 21  1  0
  1 22  1  0
  1 23  1  0
  4 24  1  0
  5 25  1  0
  7 26  1  0
 10 27  1  0
 11 28  1  0
 11 29  1  0
 12 30  1  0
 12 31  1  0
 13 32  1  0
 13 33  1  0
 14 34  1  0
 14 35  1  0
 15 36  1  6
 16 37  1  0
 16 38  1  0
 17 39  1  0
 20 40  1  0
 20 41  1  0
M  END
>  <_MoleculeID>  (9) 
smi1

>  <_InputIndex>  (9) 
1

>  <_InputSMILES>  (9) 
COc1ccc(cc1OC1CCCC1)[C@@H]1CNC(=O)C1

>  <_InputInChIKey>  (9) 
HJORMJIFDVBMOB-LBPRGKRZSA-N

>  <_SMILES>  (9) 
COc1ccc([C@@H]2CNC(=O)C2)cc1OC1CCCC1

>  <_InChIKey>  (9) 
HJORMJIFDVBMOB-LBPRGKRZSA-N

$$$$
smi1_conf7
     RDKit          3D

 41 43  0  0  0  0  0  0  0  0999 V2000
   -0.6538   -0.0000    1.2702 C   0  0  0  0  0  0  0  0  0  0  0  0
    0.0000   -0.0000    0.0000 O   0  0  0  0  0  0  0  0  0  0  0  0
    1.3760    0.0000    0.0000 C   0  0  0  0  0  0  0  0  0  0  0  0
    2.0871    0.0000    1.2027 C   0  0  0  0  0  0  0  0  0  0  0  0
    3.4898   -0.0010    1.2110 C   0  0  0  0  0  0  0  0  0  0  0  0
    4.2380    0.0009    0.0236 C   0  0  0  0  0  0  0  0  0  0  0  0
    3.4886    0.0155   -1.1687 C   0  0  0  0  0  0  0  0  0  0  0  0
    2.0874    0.0194   -1.1991 C   0  0  0  0  0  0  0  0  0  0  0  0
    1.4106    0.0350   -2.3970 O   0  0  0  0  0  0  0  0  0  0  0  0
    1.0947    1.3030   -2.9475 C   0  0  0  0  0  0  0  0  0  0  0  0
    1.6795    1.4808   -4.3397 C   0  0  0  0  0  0  0  0  0  0  0  0
    0.8699    2.6391   -4.8969 C   0  0  0  0  0  0  0  0  0  0  0  0
   -0.5410    2.4279   -4.3505 C   0  0  0  0  0  0  0  0  0  0  0  0
   -0.4047    1.4753   -3.1621 C   0  0  0  0  0  0  0  0  0  0  0  0
    5.7240    0.0004    0.0238 C   0  0  2  0  0  0  0  0  0  0  0  0
    6.2769   -0.4283    1.3757 C   0  0  0  0  0  0  0  0  0  0  0  0
    6.4358    0.8081    2.0929 N   0  0  0  0  0  0  0  0  0  0  0  0
    6.4549    1.9175    1.2563 C   0  0  0  0  0  0  0  0  0  0  0  0
    6.6214    3.0840    1.5772 O   0  0  0  0  0  0  0  0  0  0  0  0
    6.2797    1.4161   -0.1585 C   0  0  0  0  0  0  0  0  0  0  0  0
   -1.7340    0.0000    1.1018 H   0  0  0  0  0  0  0  0  0  0  0  0
   -0.3819    0.8975    1.8343 H   0  0  0  0  0  0  0  0  0  0  0  0
   -0.3819   -0.8975    1.8343 H   0  0  0  0  0  0  0  0  0  0  0  0
    1.5574    0.0042    2.1525 H   0  0  0  0  0  0  0  0  0  0  0  0
    3.9786    0.0043    2.1820 H   0  0  0  0  0  0  0  0  0  0  0  0
    4.0274    0.0242   -2.1154 H   0  0  0  0  0  0  0  0  0  0  0  0
    1.4731    2.0790   -2.2722 H   0  0  0  0  0  0  0  0  0  0  0  0
    1.5400    0.5765   -4.9446 H   0  0  0  0  0  0  0  0  0  0  0  0
    2.7528    1.6925   -4.3129 H   0  0  0  0  0  0  0  0  0  0  0  0
    0.8901    2.6735   -5.9901 H   0  0  0  0  0  0  0  0  0  0  0  0
    1.2713    3.5892   -4.5243 H   0  0  0  0  0  0  0  0  0  0  0  0
   -0.9920    3.3808   -4.0543 H   0  0  0  0  0  0  0  0  0  0  0  0
   -1.1886    1.9823   -5.1139 H   0  0  0  0  0  0  0  0  0  0  0  0
   -0.8915    1.8724   -2.2651 H   0  0  0  0  0  0  0  0  0  0  0  0
   -0.8887    0.5166   -3.3842 H   0  0  0  0  0  0  0  0  0  0  0  0
    6.0577   -0.6685   -0.7761 H   0  0  0  0  0  0  0  0  0  0  0  0
    5.6258   -1.1014    1.9411 H   0  0  0  0  0  0  0  0  0  0  0  0
    7.2692   -0.8811    1.2780 H   0  0  0  0  0  0  0  0  0  0  0  0
    6.5732    0.8643    3.0971 H   0  0  0  0  0  0  0  0  0  0  0  0
    5.6146    2.0766   -0.7222 H   0  0  0  0  0  0  0  0  0  0  0  0
    7.2657    1.3919   -0.6347 H   0  0  0  0  0  0  0  0  0  0  0  0
  1  2  1  0
  2  3  1  0
  3  4  2  0
  4  5  1  0
  5  6  2  0
  6  7  1  0
  7  8  2  0
  8  9  1  0
  9 10  1  0
 10 11  1  0
 11 12  1  0
 12 13  1  0
 13 14  1  0
 15  6  1  0
 15 16  1  0
 16 17  1  0
 17 18  1  0
 18 19  2  0
 18 20  1  0
  8  3  1  0
 14 10  1  0
 20 15  1  0
  1 21  1  0
  1 22  1  0
  1 23  1  0
  4 24  1  0
  5 25  1  0
  7 26  1  0
 10 27  1  0
 11 28  1  0
 11 29  1  0
 12 30  1  0
 12 31  1  0
 13 32  1  0
 13 33  1  0
 14 34  1  0
 14 35  1  0
 15 36  1  6
 16 37  1  0
 16 38  1  0
 17 39  1  0
 20 40  1  0
 20 41  1  0
M  END
>  <_MoleculeID>  (10) 
smi1

>  <_InputIndex>  (10) 
1

>  <_InputSMILES>  (10) 
COc1ccc(cc1OC1CCCC1)[C@@H]1CNC(=O)C1

>  <_InputInChIKey>  (10) 
HJORMJIFDVBMOB-LBPRGKRZSA-N

>  <_SMILES>  (10) 
COc1ccc([C@@H]2CNC(=O)C2)cc1OC1CCCC1

>  <_InChIKey>  (10) 
HJORMJIFDVBMOB-LBPRGKRZSA-N

$$$$
smi1_conf8
     RDKit          3D

 41 43  0  0  0  0  0  0  0  0999 V2000
   -0.6538   -0.0000    1.2702 C   0  0  0  0  0  0  0  0  0  0  0  0
    0.0000   -0.0000    0.0000 O   0  0  0  0  0  0  0  0  0  0  0  0
    1.3760    0.0000    0.0000 C   0  0  0  0  0  0  0  0  0  0  0  0
    2.0871    0.0000    1.2027 C   0  0  0  0  0  0  0  0  0  0  0  0
    3.4898   -0.0010    1.2110 C   0  0  0  0  0  0  0  0  0  0  0  0
    4.2380    0.0009    0.0236 C   0  0  0  0  0  0  0  0  0  0  0  0
    3.4886    0.0155   -1.1687 C   0  0  0  0  0  0  0  0  0  0  0  0
    2.0874    0.0194   -1.1991 C   0  0  0  0  0  0  0  0  0  0  0  0
    1.4106    0.0350   -2.3970 O   0  0  0  0  0  0  0  0  0  0  0  0
    1.0947    1.3030   -2.9475 C   0  0  0  0  0  0  0  0  0  0  0  0
   -0.2343    1.8508   -2.4343 C   0  0  0  0  0  0  0  0  0  0  0  0
   -0.6972    2.8176   -3.5189 C   0  0  0  0  0  0  0  0  0  0  0  0
    0.0239    2.3961   -4.7996 C   0  0  0  0  0  0  0  0  0  0  0  0
    0.8080    1.1430   -4.4381 C   0  0  0  0  0  0  0  0  0  0  0  0
    5.7240    0.0004    0.0238 C   0  0  1  0  0  0  0  0  0  0  0  0
    6.2777    1.4066   -0.1583 C   0  0  0  0  0  0  0  0  0  0  0  0
    6.4363    1.8933    1.1857 N   0  0  0  0  0  0  0  0  0  0  0  0
    6.4545    0.8733    2.1293 C   0  0  0  0  0  0  0  0  0  0  0  0
    6.6204    0.9823    3.3343 O   0  0  0  0  0  0  0  0  0  0  0  0
    6.2788   -0.4302    1.3850 C   0  0  0  0  0  0  0  0  0  0  0  0
   -1.7340    0.0000    1.1018 H   0  0  0  0  0  0  0  0  0  0  0  0
   -0.3819    0.8975    1.8343 H   0  0  0  0  0  0  0  0  0  0  0  0
   -0.3819   -0.8975    1.8343 H   0  0  0  0  0  0  0  0  0  0  0  0
    1.5574    0.0042    2.1525 H   0  0  0  0  0  0  0  0  0  0  0  0
    3.9786    0.0043    2.1820 H   0  0  0  0  0  0  0  0  0  0  0  0
    4.0274    0.0242   -2.1154 H   0  0  0  0  0  0  0  0  0  0  0  0
    1.9137    2.0245   -2.8225 H   0  0  0  0  0  0  0  0  0  0  0  0
   -0.1374    2.3445   -1.4625 H   0  0  0  0  0  0  0  0  0  0  0  0
   -0.9618    1.0391   -2.3075 H   0  0  0  0  0  0  0  0  0  0  0  0
   -1.7851    2.7843   -3.6371 H   0  0  0  0  0  0  0  0  0  0  0  0
   -0.4263    3.8473   -3.2598 H   0  0  0  0  0  0  0  0  0  0  0  0
   -0.6743    2.2120   -5.6221 H   0  0  0  0  0  0  0  0  0  0  0  0
    0.7068    3.1921   -5.1184 H   0  0  0  0  0  0  0  0  0  0  0  0
    0.2071    0.2436   -4.6235 H   0  0  0  0  0  0  0  0  0  0  0  0
    1.7259    1.0401   -5.0255 H   0  0  0  0  0  0  0  0  0  0  0  0
    6.0577   -0.6685   -0.7761 H   0  0  0  0  0  0  0  0  0  0  0  0
    5.6272    2.0827   -0.7208 H   0  0  0  0  0  0  0  0  0  0  0  0
    7.2702    1.3902   -0.6208 H   0  0  0  0  0  0  0  0  0  0  0  0
    6.5741    2.8715    1.4191 H   0  0  0  0  0  0  0  0  0  0  0  0
    5.6132   -1.1017    1.9349 H   0  0  0  0  0  0  0  0  0  0  0  0
    7.2647   -0.8951    1.2773 H   0  0  0  0  0  0  0  0  0  0  0  0
  1  2  1  0
  2  3  1  0
  3  4  2  0
  4  5  1  0
  5  6  2  0
  6  7  1  0
  7  8  2  0
  8  9  1  0
  9 10  1  0
 10 11  1  0
 11 12  1  0
 12 13  1  0
 13 14  1  0
 15  6  1  0
 15 16  1  0
 16 17  1  0
 17 18  1  0
 18 19  2  0
 18 20  1  0
  8  3  1  0
 14 10  1  0
 20 15  1  0
  1 21  1  0
  1 22  1  0
  1 23  1  0
  4 24  1  0
  5 25  1  0
  7 26  1  0
 10 27  1  0
 11 28  1  0
 11 29  1  0
 12 30  1  0
 12 31  1  0
 13 32  1  0
 13 33  1  0
 14 34  1  0
 14 35  1  0
 15 36  1  6
 16 37  1  0
 16 38  1  0
 17 39  1  0
 20 40  1  0
 20 41  1  0
M  END
>  <_MoleculeID>  (11) 
smi1

>  <_InputIndex>  (11) 
1

>  <_InputSMILES>  (11) 
COc1ccc(cc1OC1CCCC1)[C@@H]1CNC(=O)C1

>  <_InputInChIKey>  (11) 
HJORMJIFDVBMOB-LBPRGKRZSA-N

>  <_SMILES>  (11) 
COc1ccc([C@@H]2CNC(=O)C2)cc1OC1CCCC1

>  <_InChIKey>  (11) 
HJORMJIFDVBMOB-LBPRGKRZSA-N

$$$$
smi1_conf9
     RDKit          3D

 41 43  0  0  0  0  0  0  0  0999 V2000
   -0.6538   -0.0000    1.2702 C   0  0  0  0  0  0  0  0  0  0  0  0
    0.0000   -0.0000    0.0000 O   0  0  0  0  0  0  0  0  0  0  0  0
    1.3760    0.0000    0.0000 C   0  0  0  0  0  0  0  0  0  0  0  0
    2.0871    0.0000    1.2027 C   0  0  0  0  0  0  0  0  0  0  0  0
    3.4898   -0.0010    1.2110 C   0  0  0  0  0  0  0  0  0  0  0  0
    4.2380    0.0009    0.0236 C   0  0  0  0  0  0  0  0  0  0  0  0
    3.4886    0.0155   -1.1687 C   0  0  0  0  0  0  0  0  0  0  0  0
    2.0874    0.0194   -1.1991 C   0  0  0  0  0  0  0  0  0  0  0  0
    1.4106    0.0350   -2.3970 O   0  0  0  0  0  0  0  0  0  0  0  0
    1.0882   -1.2184   -2.9766 C   0  0  0  0  0  0  0  0  0  0  0  0
    1.6722   -1.3671   -4.3725 C   0  0  0  0  0  0  0  0  0  0  0  0
    0.8566   -2.5080   -4.9562 C   0  0  0  0  0  0  0  0  0  0  0  0
   -0.5532   -2.3022   -4.4050 C   0  0  0  0  0  0  0  0  0  0  0  0
   -0.4120   -1.3780   -3.1950 C   0  0  0  0  0  0  0  0  0  0  0  0
    5.7240    0.0004    0.0238 C   0  0  2  0  0  0  0  0  0  0  0  0
    6.2767   -1.4055   -0.1634 C   0  0  0  0  0  0  0  0  0  0  0  0
    6.4351   -1.8972    1.1789 N   0  0  0  0  0  0  0  0  0  0  0  0
    6.4539   -0.8807    2.1261 C   0  0  0  0  0  0  0  0  0  0  0  0
    6.6198   -0.9941    3.3307 O   0  0  0  0  0  0  0  0  0  0  0  0
    6.2791    0.4256    1.3866 C   0  0  0  0  0  0  0  0  0  0  0  0
   -1.7340    0.0000    1.1018 H   0  0  0  0  0  0  0  0  0  0  0  0
   -0.3819    0.8975    1.8343 H   0  0  0  0  0  0  0  0  0  0  0  0
   -0.3819   -0.8975    1.8343 H   0  0  0  0  0  0  0  0  0  0  0  0
    1.5574    0.0042    2.1525 H   0  0  0  0  0  0  0  0  0  0  0  0
    3.9786    0.0043    2.1820 H   0  0  0  0  0  0  0  0  0  0  0  0
    4.0274    0.0242   -2.1154 H   0  0  0  0  0  0  0  0  0  0  0  0
    1.4625   -2.0117   -2.3194 H   0  0  0  0  0  0  0  0  0  0  0  0
    1.5373   -0.4484   -4.9564 H   0  0  0  0  0  0  0  0  0  0  0  0
    2.7444   -1.5849   -4.3506 H   0  0  0  0  0  0  0  0  0  0  0  0
    0.8768   -2.5174   -6.0499 H   0  0  0  0  0  0  0  0  0  0  0  0
    1.2532   -3.4686   -4.6057 H   0  0  0  0  0  0  0  0  0  0  0  0
   -1.0091   -3.2593   -4.1308 H   0  0  0  0  0  0  0  0  0  0  0  0
   -1.1984   -1.8358   -5.1579 H   0  0  0  0  0  0  0  0  0  0  0  0
   -0.9009   -1.7932   -2.3074 H   0  0  0  0  0  0  0  0  0  0  0  0
   -0.8911   -0.4120   -3.3949 H   0  0  0  0  0  0  0  0  0  0  0  0
    6.0582    0.6719   -0.7737 H   0  0  0  0  0  0  0  0  0  0  0  0
    5.6258   -2.0791   -0.7283 H   0  0  0  0  0  0  0  0  0  0  0  0
    7.2692   -1.3881   -0.6259 H   0  0  0  0  0  0  0  0  0  0  0  0
    6.5722   -2.8764    1.4087 H   0  0  0  0  0  0  0  0  0  0  0  0
    5.6139    1.0956    1.9388 H   0  0  0  0  0  0  0  0  0  0  0  0
    7.2653    0.8903    1.2805 H   0  0  0  0  0  0  0  0  0  0  0  0
  1  2  1  0
  2  3  1  0
  3  4  2  0
  4  5  1  0
  5  6  2  0
  6  7  1  0
  7  8  2  0
  8  9  1  0
  9 10  1  0
 10 11  1  0
 11 12  1  0
 12 13  1  0
 13 14  1  0
 15  6  1  0
 15 16  1  0
 16 17  1  0
 17 18  1  0
 18 19  2  0
 18 20  1  0
  8  3  1  0
 14 10  1  0
 20 15  1  0
  1 21  1  0
  1 22  1  0
  1 23  1  0
  4 24  1  0
  5 25  1  0
  7 26  1  0
 10 27  1  0
 11 28  1  0
 11 29  1  0
 12 30  1  0
 12 31  1  0
 13 32  1  0
 13 33  1  0
 14 34  1  0
 14 35  1  0
 15 36  1  6
 16 37  1  0
 16 38  1  0
 17 39  1  0
 20 40  1  0
 20 41  1  0
M  END
>  <_MoleculeID>  (12) 
smi1

>  <_InputIndex>  (12) 
1

>  <_InputSMILES>  (12) 
COc1ccc(cc1OC1CCCC1)[C@@H]1CNC(=O)C1

>  <_InputInChIKey>  (12) 
HJORMJIFDVBMOB-LBPRGKRZSA-N

>  <_SMILES>  (12) 
COc1ccc([C@@H]2CNC(=O)C2)cc1OC1CCCC1

>  <_InChIKey>  (12) 
HJORMJIFDVBMOB-LBPRGKRZSA-N

$$$$
smi2_conf0
     RDKit          3D

 26 26  0  0  0  0  0  0  0  0999 V2000
    1.5719    2.4866   -0.0667 N   0  0  0  0  0  0  0  0  0  0  0  0
    2.0757    1.2574   -0.6746 C   0  0  0  0  0  0  0  0  0  0  0  0
    1.4860    0.0000    0.0000 C   0  0  2  0  0  0  0  0  0  0  0  0
    2.0470   -1.2657   -0.6754 C   0  0  0  0  0  0  0  0  0  0  0  0
    1.5061   -2.5342   -0.0583 C   0  0  0  0  0  0  0  0  0  0  0  0
    2.0031   -3.6520   -0.6439 O   0  0  0  0  0  0  0  0  0  0  0  0
    0.7119   -2.5575    0.8730 O   0  0  0  0  0  0  0  0  0  0  0  0
    0.0000    0.0000    0.0000 C   0  0  0  0  0  0  0  0  0  0  0  0
   -0.7111    0.0000    1.2027 C   0  0  0  0  0  0  0  0  0  0  0  0
   -2.1138    0.0010    1.2110 C   0  0  0  0  0  0  0  0  0  0  0  0
   -2.8620   -0.0009    0.0236 C   0  0  0  0  0  0  0  0  0  0  0  0
   -4.5830   -0.0003    0.0238 Cl  0  0  0  0  0  0  0  0  0  0  0  0
   -2.1126   -0.0155   -1.1687 C   0  0  0  0  0  0  0  0  0  0  0  0
   -0.7114   -0.0194   -1.1991 C   0  0  0  0  0  0  0  0  0  0  0  0
    1.7362    2.4638    0.9391 H   0  0  0  0  0  0  0  0  0  0  0  0
    0.5619    2.5463   -0.1867 H   0  0  0  0  0  0  0  0  0  0  0  0
    1.8487    1.2735   -1.7463 H   0  0  0  0  0  0  0  0  0  0  0  0
    3.1678    1.2471   -0.5787 H   0  0  0  0  0  0  0  0  0  0  0  0
    1.8291    0.0000    1.0444 H   0  0  0  0  0  0  0  0  0  0  0  0
    3.1413   -1.2982   -0.6023 H   0  0  0  0  0  0  0  0  0  0  0  0
    1.8195   -1.2883   -1.7482 H   0  0  0  0  0  0  0  0  0  0  0  0
    2.6306   -3.4918   -1.3808 H   0  0  0  0  0  0  0  0  0  0  0  0
   -0.1814   -0.0042    2.1525 H   0  0  0  0  0  0  0  0  0  0  0  0
   -2.6026   -0.0043    2.1820 H   0  0  0  0  0  0  0  0  0  0  0  0
   -2.6514   -0.0242   -2.1154 H   0  0  0  0  0  0  0  0  0  0  0  0
   -0.1765   -0.0317   -2.1459 H   0  0  0  0  0  0  0  0  0  0  0  0
  1  2  1  0
  3  2  1  0
  3  4  1  0
  4  5  1  0
  5  6  1  0
  5  7  2  0
  3  8  1  0
  8  9  2  0
  9 10  1  0
 10 11  2  0
 11 12  1  0
 11 13  1  0
 13 14  2  0
 14  8  1  0
  1 15  1  0
  1 16  1  0
  2 17  1  0
  2 18  1  0
  3 19  1  1
  4 20  1  0
  4 21  1  0
  6 22  1  0
  9 23  1  0
 10 24  1  0
 13 25  1  0
 14 26  1  0
M  END
>  <_MoleculeID>  (13) 
smi2

>  <_InputIndex>  (13) 
2

>  <_InputSMILES>  (13) 
NC[C@H](CC(O)=O)c1ccc(Cl)cc1

>  <_InputInChIKey>  (13) 
KPYSYYIEGFHWSV-QMMMGPOBSA-N

>  <_SMILES>  (13) 
NC[C@H](CC(=O)O)c1ccc(Cl)cc1

>  <_InChIKey>  (13) 
KPYSYYIEGFHWSV-QMMMGPOBSA-N

$$$$
smi2_conf1
     RDKit          3D

 26 26  0  0  0  0  0  0  0  0999 V2000
    1.5719    2.4866   -0.0667 N   0  0  0  0  0  0  0  0  0  0  0  0
    2.0757    1.2574   -0.6746 C   0  0  0  0  0  0  0  0  0  0  0  0
    1.4860    0.0000    0.0000 C   0  0  2  0  0  0  0  0  0  0  0  0
    2.0470   -1.2657   -0.6754 C   0  0  0  0  0  0  0  0  0  0  0  0
    3.5522   -1.3505   -0.5770 C   0  0  0  0  0  0  0  0  0  0  0  0
    4.0523   -2.4590   -1.1774 O   0  0  0  0  0  0  0  0  0  0  0  0
    4.2502   -0.5106   -0.0240 O   0  0  0  0  0  0  0  0  0  0  0  0
    0.0000    0.0000    0.0000 C   0  0  0  0  0  0  0  0  0  0  0  0
   -0.7111    0.0000    1.2027 C   0  0  0  0  0  0  0  0  0  0  0  0
   -2.1138    0.0010    1.2110 C   0  0  0  0  0  0  0  0  0  0  0  0
   -2.8620   -0.0009    0.0236 C   0  0  0  0  0  0  0  0  0  0  0  0
   -4.5830   -0.0003    0.0238 Cl  0  0  0  0  0  0  0  0  0  0  0  0
   -2.1126   -0.0155   -1.1687 C   0  0  0  0  0  0  0  0  0  0  0  0
   -0.7114   -0.0194   -1.1991 C   0  0  0  0  0  0  0  0  0  0  0  0
    1.7362    2.4638    0.9391 H   0  0  0  0  0  0  0  0  0  0  0  0
    0.5619    2.5463   -0.1867 H   0  0  0  0  0  0  0  0  0  0  0  0
    1.8487    1.2735   -1.7463 H   0  0  0  0  0  0  0  0  0  0  0  0
    3.1678    1.2471   -0.5787 H   0  0  0  0  0  0  0  0  0  0  0  0
    1.8291   -0.0000    1.0444 H   0  0  0  0  0  0  0  0  0  0  0  0
    1.7790   -1.2954   -1.7391 H   0  0  0  0  0  0  0  0  0  0  0  0
    1.6278   -2.1796   -0.2372 H   0  0  0  0  0  0  0  0  0  0  0  0
    3.3827   -3.0509   -1.5823 H   0  0  0  0  0  0  0  0  0  0  0  0
   -0.1814   -0.0042    2.1525 H   0  0  0  0  0  0  0  0  0  0  0  0
   -2.6026   -0.0043    2.1820 H   0  0  0  0  0  0  0  0  0  0  0  0
   -2.6514   -0.0242   -2.1154 H   0  0  0  0  0  0  0  0  0  0  0  0
   -0.1765   -0.0317   -2.1459 H   0  0  0  0  0  0  0  0  0  0  0  0
  1  2  1  0
  3  2  1  0
  3  4  1  0
  4  5  1  0
  5  6  1  0
  5  7  2  0
  3  8  1  0
  8  9  2  0
  9 10  1  0
 10 11  2  0
 11 12  1  0
 11 13  1  0
 13 14  2  0
 14  8  1  0
  1 15  1  0
  1 16  1  0
  2 17  1  0
  2 18  1  0
  3 19  1  1
  4 20  1  0
  4 21  1  0
  6 22  1  0
  9 23  1  0
 10 24  1  0
 13 25  1  0
 14 26  1  0
M  END
>  <_MoleculeID>  (14) 
smi2

>  <_InputIndex>  (14) 
2

>  <_InputSMILES>  (14) 
NC[C@H](CC(O)=O)c1ccc(Cl)cc1

>  <_InputInChIKey>  (14) 
KPYSYYIEGFHWSV-QMMMGPOBSA-N

>  <_SMILES>  (14) 
NC[C@H](CC(=O)O)c1ccc(Cl)cc1

>  <_InChIKey>  (14) 
KPYSYYIEGFHWSV-QMMMGPOBSA-N

$$$$
smi2_conf2
     RDKit          3D

 26 26  0  0  0  0  0  0  0  0999 V2000
    3.5326    1.3605    0.3943 N   0  0  0  0  0  0  0  0  0  0  0  0
    2.0757    1.3968    0.2915 C   0  0  0  0  0  0  0  0  0  0  0  0
    1.4860    0.0000    0.0000 C   0  0  2  0  0  0  0  0  0  0  0  0
    2.0470   -0.5354   -1.3310 C   0  0  0  0  0  0  0  0  0  0  0  0
    1.5061   -1.9038   -1.6736 C   0  0  0  0  0  0  0  0  0  0  0  0
    2.0031   -2.3837   -2.8407 O   0  0  0  0  0  0  0  0  0  0  0  0
    0.7119   -2.5203   -0.9752 O   0  0  0  0  0  0  0  0  0  0  0  0
    0.0000    0.0000    0.0000 C   0  0  0  0  0  0  0  0  0  0  0  0
   -0.7111    0.0000    1.2027 C   0  0  0  0  0  0  0  0  0  0  0  0
   -2.1138    0.0010    1.2110 C   0  0  0  0  0  0  0  0  0  0  0  0
   -2.8620   -0.0009    0.0236 C   0  0  0  0  0  0  0  0  0  0  0  0
   -4.5830   -0.0003    0.0238 Cl  0  0  0  0  0  0  0  0  0  0  0  0
   -2.1126   -0.0155   -1.1687 C   0  0  0  0  0  0  0  0  0  0  0  0
   -0.7114   -0.0194   -1.1991 C   0  0  0  0  0  0  0  0  0  0  0  0
    3.9247    0.9329   -0.4438 H   0  0  0  0  0  0  0  0  0  0  0  0
    3.8124    0.7653    1.1725 H   0  0  0  0  0  0  0  0  0  0  0  0
    1.6656    1.8128    1.2184 H   0  0  0  0  0  0  0  0  0  0  0  0
    1.8036    2.0859   -0.5167 H   0  0  0  0  0  0  0  0  0  0  0  0
    1.8291   -0.6713    0.8001 H   0  0  0  0  0  0  0  0  0  0  0  0
    3.1413   -0.6074   -1.2959 H   0  0  0  0  0  0  0  0  0  0  0  0
    1.8195    0.1368   -2.1673 H   0  0  0  0  0  0  0  0  0  0  0  0
    2.6306   -1.7873   -3.3022 H   0  0  0  0  0  0  0  0  0  0  0  0
   -0.1814   -0.0042    2.1525 H   0  0  0  0  0  0  0  0  0  0  0  0
   -2.6026   -0.0043    2.1820 H   0  0  0  0  0  0  0  0  0  0  0  0
   -2.6514   -0.0242   -2.1154 H   0  0  0  0  0  0  0  0  0  0  0  0
   -0.1765   -0.0317   -2.1459 H   0  0  0  0  0  0  0  0  0  0  0  0
  1  2  1  0
  3  2  1  0
  3  4  1  0
  4  5  1  0
  5  6  1  0
  5  7  2  0
  3  8  1  0
  8  9  2  0
  9 10  1  0
 10 11  2  0
 11 12  1  0
 11 13  1  0
 13 14  2  0
 14  8  1  0
  1 15  1  0
  1 16  1  0
  2 17  1  0
  2 18  1  0
  3 19  1  1
  4 20  1  0
  4 21  1  0
  6 22  1  0
  9 23  1  0
 10 24  1  0
 13 25  1  0
 14 26  1  0
M  END
>  <_MoleculeID>  (15) 
smi2

>  <_InputIndex>  (15) 
2

>  <_InputSMILES>  (15) 
NC[C@H](CC(O)=O)c1ccc(Cl)cc1

>  <_InputInChIKey>  (15) 
KPYSYYIEGFHWSV-QMMMGPOBSA-N

>  <_SMILES>  (15) 
NC[C@H](CC(=O)O)c1ccc(Cl)cc1

>  <_InChIKey>  (15) 
KPYSYYIEGFHWSV-QMMMGPOBSA-N

$$$$
smi2_conf3
     RDKit          3D

 26 26  0  0  0  0  0  0  0  0999 V2000
    3.5326   -0.6246    1.2713 N   0  0  0  0  0  0  0  0  0  0  0  0
    2.0757   -0.5296    1.3250 C   0  0  0  0  0  0  0  0  0  0  0  0
    1.4860   -0.0000    0.0000 C   0  0  2  0  0  0  0  0  0  0  0  0
    2.0470    1.4037   -0.2962 C   0  0  0  0  0  0  0  0  0  0  0  0
    1.7105    2.3981    0.7904 C   0  0  0  0  0  0  0  0  0  0  0  0
    2.1950    3.6379    0.5308 O   0  0  0  0  0  0  0  0  0  0  0  0
    1.0655    2.1231    1.7938 O   0  0  0  0  0  0  0  0  0  0  0  0
    0.0000    0.0000    0.0000 C   0  0  0  0  0  0  0  0  0  0  0  0
   -0.7111    0.0000    1.2027 C   0  0  0  0  0  0  0  0  0  0  0  0
   -2.1138    0.0010    1.2110 C   0  0  0  0  0  0  0  0  0  0  0  0
   -2.8620   -0.0009    0.0236 C   0  0  0  0  0  0  0  0  0  0  0  0
   -4.5830   -0.0003    0.0238 Cl  0  0  0  0  0  0  0  0  0  0  0  0
   -2.1126   -0.0155   -1.1687 C   0  0  0  0  0  0  0  0  0  0  0  0
   -0.7114   -0.0194   -1.1991 C   0  0  0  0  0  0  0  0  0  0  0  0
    3.9247    0.2751    0.9958 H   0  0  0  0  0  0  0  0  0  0  0  0
    3.8124   -1.2876    0.5501 H   0  0  0  0  0  0  0  0  0  0  0  0
    1.6656   -1.5147    1.5737 H   0  0  0  0  0  0  0  0  0  0  0  0
    1.8036    0.1466    2.1439 H   0  0  0  0  0  0  0  0  0  0  0  0
    1.8291   -0.6713   -0.8001 H   0  0  0  0  0  0  0  0  0  0  0  0
    1.6502    1.7943   -1.2417 H   0  0  0  0  0  0  0  0  0  0  0  0
    3.1373    1.3887   -0.4145 H   0  0  0  0  0  0  0  0  0  0  0  0
    2.6959    3.7216   -0.3087 H   0  0  0  0  0  0  0  0  0  0  0  0
   -0.1814   -0.0042    2.1525 H   0  0  0  0  0  0  0  0  0  0  0  0
   -2.6026   -0.0043    2.1820 H   0  0  0  0  0  0  0  0  0  0  0  0
   -2.6514   -0.0242   -2.1154 H   0  0  0  0  0  0  0  0  0  0  0  0
   -0.1765   -0.0317   -2.1459 H   0  0  0  0  0  0  0  0  0  0  0  0
  1  2  1  0
  3  2  1  0
  3  4  1  0
  4  5  1  0
  5  6  1  0
  5  7  2  0
  3  8  1  0
  8  9  2  0
  9 10  1  0
 10 11  2  0
 11 12  1  0
 11 13  1  0
 13 14  2  0
 14  8  1  0
  1 15  1  0
  1 16  1  0
  2 17  1  0
  2 18  1  0
  3 19  1  6
  4 20  1  0
  4 21  1  0
  6 22  1  0
  9 23  1  0
 10 24  1  0
 13 25  1  0
 14 26  1  0
M  END
>  <_MoleculeID>  (16) 
smi2

>  <_InputIndex>  (16) 
2

>  <_InputSMILES>  (16) 
NC[C@H](CC(O)=O)c1ccc(Cl)cc1

>  <_InputInChIKey>  (16) 
KPYSYYIEGFHWSV-QMMMGPOBSA-N

>  <_SMILES>  (16) 
NC[C@H](CC(=O)O)c1ccc(Cl)cc1

>  <_InChIKey>  (16) 
KPYSYYIEGFHWSV-QMMMGPOBSA-N

$$$$
smi2_conf4
     RDKit          3D

 26 26  0  0  0  0  0  0  0  0999 V2000
    1.7449    2.3561   -0.7596 N   0  0  0  0  0  0  0  0  0  0  0  0
    2.0757    1.3968    0.2915 C   0  0  0  0  0  0  0  0  0  0  0  0
    1.4860    0.0000    0.0000 C   0  0  2  0  0  0  0  0  0  0  0  0
    2.0470   -0.5354   -1.3310 C   0  0  0  0  0  0  0  0  0  0  0  0
    1.5061   -1.9038   -1.6736 C   0  0  0  0  0  0  0  0  0  0  0  0
    2.0031   -2.3837   -2.8407 O   0  0  0  0  0  0  0  0  0  0  0  0
    0.7119   -2.5203   -0.9752 O   0  0  0  0  0  0  0  0  0  0  0  0
    0.0000    0.0000    0.0000 C   0  0  0  0  0  0  0  0  0  0  0  0
   -0.7111    0.0000    1.2027 C   0  0  0  0  0  0  0  0  0  0  0  0
   -2.1138    0.0010    1.2110 C   0  0  0  0  0  0  0  0  0  0  0  0
   -2.8620   -0.0009    0.0236 C   0  0  0  0  0  0  0  0  0  0  0  0
   -4.5830   -0.0003    0.0238 Cl  0  0  0  0  0  0  0  0  0  0  0  0
   -2.1126   -0.0155   -1.1687 C   0  0  0  0  0  0  0  0  0  0  0  0
   -0.7114   -0.0194   -1.1991 C   0  0  0  0  0  0  0  0  0  0  0  0
    0.7357    2.3748   -0.9011 H   0  0  0  0  0  0  0  0  0  0  0  0
    2.1489    2.0557   -1.6454 H   0  0  0  0  0  0  0  0  0  0  0  0
    3.1651    1.3507    0.3987 H   0  0  0  0  0  0  0  0  0  0  0  0
    1.6761    1.7730    1.2406 H   0  0  0  0  0  0  0  0  0  0  0  0
    1.8291   -0.6713    0.8001 H   0  0  0  0  0  0  0  0  0  0  0  0
    3.1413   -0.6074   -1.2959 H   0  0  0  0  0  0  0  0  0  0  0  0
    1.8195    0.1368   -2.1673 H   0  0  0  0  0  0  0  0  0  0  0  0
    2.6306   -1.7873   -3.3022 H   0  0  0  0  0  0  0  0  0  0  0  0
   -0.1814   -0.0042    2.1525 H   0  0  0  0  0  0  0  0  0  0  0  0
   -2.6026   -0.0043    2.1820 H   0  0  0  0  0  0  0  0  0  0  0  0
   -2.6514   -0.0242   -2.1154 H   0  0  0  0  0  0  0  0  0  0  0  0
   -0.1765   -0.0317   -2.1459 H   0  0  0  0  0  0  0  0  0  0  0  0
  1  2  1  0
  3  2  1  0
  3  4  1  0
  4  5  1  0
  5  6  1  0
  5  7  2  0
  3  8  1  0
  8  9  2  0
  9 10  1  0
 10 11  2  0
 11 12  1  0
 11 13  1  0
 13 14  2  0
 14  8  1  0
  1 15  1  0
  1 16  1  0
  2 17  1  0
  2 18  1  0
  3 19  1  1
  4 20  1  0
  4 21  1  0
  6 22  1  0
  9 23  1  0
 10 24  1  0
 13 25  1  0
 14 26  1  0
M  END
>  <_MoleculeID>  (17) 
smi2

>  <_InputIndex>  (17) 
2

>  <_InputSMILES>  (17) 
NC[C@H](CC(O)=O)c1ccc(Cl)cc1

>  <_InputInChIKey>  (17) 
KPYSYYIEGFHWSV-QMMMGPOBSA-N

>  <_SMILES>  (17) 
NC[C@H](CC(=O)O)c1ccc(Cl)cc1

>  <_InChIKey>  (17) 
KPYSYYIEGFHWSV-QMMMGPOBSA-N

$$$$
smi2_conf5
     RDKit          3D

 26 26  0  0  0  0  0  0  0  0999 V2000
    1.5719   -1.8620    1.6494 N   0  0  0  0  0  0  0  0  0  0  0  0
    2.0757   -0.5296    1.3250 C   0  0  0  0  0  0  0  0  0  0  0  0
    1.4860   -0.0000    0.0000 C   0  0  2  0  0  0  0  0  0  0  0  0
    2.0470    1.4037   -0.2962 C   0  0  0  0  0  0  0  0  0  0  0  0
    1.7105    2.3981    0.7904 C   0  0  0  0  0  0  0  0  0  0  0  0
    2.1950    3.6379    0.5308 O   0  0  0  0  0  0  0  0  0  0  0  0
    1.0655    2.1231    1.7938 O   0  0  0  0  0  0  0  0  0  0  0  0
    0.0000    0.0000    0.0000 C   0  0  0  0  0  0  0  0  0  0  0  0
   -0.7111    0.0000    1.2027 C   0  0  0  0  0  0  0  0  0  0  0  0
   -2.1138    0.0010    1.2110 C   0  0  0  0  0  0  0  0  0  0  0  0
   -2.8620   -0.0009    0.0236 C   0  0  0  0  0  0  0  0  0  0  0  0
   -4.5830   -0.0003    0.0238 Cl  0  0  0  0  0  0  0  0  0  0  0  0
   -2.1126   -0.0155   -1.1687 C   0  0  0  0  0  0  0  0  0  0  0  0
   -0.7114   -0.0194   -1.1991 C   0  0  0  0  0  0  0  0  0  0  0  0
    1.7362   -2.4910    0.8643 H   0  0  0  0  0  0  0  0  0  0  0  0
    0.5619   -1.8306    1.7798 H   0  0  0  0  0  0  0  0  0  0  0  0
    1.8487    0.1470    2.1563 H   0  0  0  0  0  0  0  0  0  0  0  0
    3.1678   -0.5834    1.2449 H   0  0  0  0  0  0  0  0  0  0  0  0
    1.8291   -0.6713   -0.8001 H   0  0  0  0  0  0  0  0  0  0  0  0
    1.6502    1.7943   -1.2417 H   0  0  0  0  0  0  0  0  0  0  0  0
    3.1373    1.3887   -0.4145 H   0  0  0  0  0  0  0  0  0  0  0  0
    2.6959    3.7216   -0.3087 H   0  0  0  0  0  0  0  0  0  0  0  0
   -0.1814   -0.0042    2.1525 H   0  0  0  0  0  0  0  0  0  0  0  0
   -2.6026   -0.0043    2.1820 H   0  0  0  0  0  0  0  0  0  0  0  0
   -2.6514   -0.0242   -2.1154 H   0  0  0  0  0  0  0  0  0  0  0  0
   -0.1765   -0.0317   -2.1459 H   0  0  0  0  0  0  0  0  0  0  0  0
  1  2  1  0
  3  2  1  0
  3  4  1  0
  4  5  1  0
  5  6  1  0
  5  7  2  0
  3  8  1  0
  8  9  2  0
  9 10  1  0
 10 11  2  0
 11 12  1  0
 11 13  1  0
 13 14  2  0
 14  8  1  0
  1 15  1  0
  1 16  1  0
  2 17  1  0
  2 18  1  0
  3 19  1  6
  4 20  1  0
  4 21  1  0
  6 22  1  0
  9 23  1  0
 10 24  1  0
 13 25  1  0
 14 26  1  0
M  END
>  <_MoleculeID>  (18) 
smi2

>  <_InputIndex>  (18) 
2

>  <_InputSMILES>  (18) 
NC[C@H](CC(O)=O)c1ccc(Cl)cc1

>  <_InputInChIKey>  (18) 
KPYSYYIEGFHWSV-QMMMGPOBSA-N

>  <_SMILES>  (18) 
NC[C@H](CC(=O)O)c1ccc(Cl)cc1

>  <_InChIKey>  (18) 
KPYSYYIEGFHWSV-QMMMGPOBSA-N

$$$$
smi2_conf6
     RDKit          3D

 26 26  0  0  0  0  0  0  0  0999 V2000
    1.7449    1.3166   -2.0964 N   0  0  0  0  0  0  0  0  0  0  0  0
    2.0757    1.2574   -0.6746 C   0  0  0  0  0  0  0  0  0  0  0  0
    1.4860    0.0000    0.0000 C   0  0  2  0  0  0  0  0  0  0  0  0
    2.0470   -1.2657   -0.6754 C   0  0  0  0  0  0  0  0  0  0  0  0
    3.5522   -1.3505   -0.5770 C   0  0  0  0  0  0  0  0  0  0  0  0
    4.0523   -2.4590   -1.1774 O   0  0  0  0  0  0  0  0  0  0  0  0
    4.2502   -0.5106   -0.0240 O   0  0  0  0  0  0  0  0  0  0  0  0
    0.0000    0.0000    0.0000 C   0  0  0  0  0  0  0  0  0  0  0  0
   -0.7111    0.0000    1.2027 C   0  0  0  0  0  0  0  0  0  0  0  0
   -2.1138    0.0010    1.2110 C   0  0  0  0  0  0  0  0  0  0  0  0
   -2.8620   -0.0009    0.0236 C   0  0  0  0  0  0  0  0  0  0  0  0
   -4.5830   -0.0003    0.0238 Cl  0  0  0  0  0  0  0  0  0  0  0  0
   -2.1126   -0.0155   -1.1687 C   0  0  0  0  0  0  0  0  0  0  0  0
   -0.7114   -0.0194   -1.1991 C   0  0  0  0  0  0  0  0  0  0  0  0
    0.7357    1.2400   -2.2168 H   0  0  0  0  0  0  0  0  0  0  0  0
    2.1489    0.5171   -2.5818 H   0  0  0  0  0  0  0  0  0  0  0  0
    3.1651    1.2910   -0.5628 H   0  0  0  0  0  0  0  0  0  0  0  0
    1.6761    2.1556   -0.1893 H   0  0  0  0  0  0  0  0  0  0  0  0
    1.8291   -0.0000    1.0444 H   0  0  0  0  0  0  0  0  0  0  0  0
    1.7790   -1.2954   -1.7391 H   0  0  0  0  0  0  0  0  0  0  0  0
    1.6278   -2.1796   -0.2372 H   0  0  0  0  0  0  0  0  0  0  0  0
    3.3827   -3.0509   -1.5823 H   0  0  0  0  0  0  0  0  0  0  0  0
   -0.1814   -0.0042    2.1525 H   0  0  0  0  0  0  0  0  0  0  0  0
   -2.6026   -0.0043    2.1820 H   0  0  0  0  0  0  0  0  0  0  0  0
   -2.6514   -0.0242   -2.1154 H   0  0  0  0  0  0  0  0  0  0  0  0
   -0.1765   -0.0317   -2.1459 H   0  0  0  0  0  0  0  0  0  0  0  0
  1  2  1  0
  3  2  1  0
  3  4  1  0
  4  5  1  0
  5  6  1  0
  5  7  2  0
  3  8  1  0
  8  9  2  0
  9 10  1  0
 10 11  2  0
 11 12  1  0
 11 13  1  0
 13 14  2  0
 14  8  1  0
  1 15  1  0
  1 16  1  0
  2 17  1  0
  2 18  1  0
  3 19  1  1
  4 20  1  0
  4 21  1  0
  6 22  1  0
  9 23  1  0
 10 24  1  0
 13 25  1  0
 14 26  1  0
M  END
>  <_MoleculeID>  (19) 
smi2

>  <_InputIndex>  (19) 
2

>  <_InputSMILES>  (19) 
NC[C@H](CC(O)=O)c1ccc(Cl)cc1

>  <_InputInChIKey>  (19) 
KPYSYYIEGFHWSV-QMMMGPOBSA-N

>  <_SMILES>  (19) 
NC[C@H](CC(=O)O)c1ccc(Cl)cc1

>  <_InChIKey>  (19) 
KPYSYYIEGFHWSV-QMMMGPOBSA-N

$$$$
smi3_conf0
     RDKit          3D

 41 43  0  0  0  0  0  0  0  0999 V2000
   -0.6538   -0.0000    1.2702 C   0  0  0  0  0  0  0  0  0  0  0  0
    0.0000   -0.0000    0.0000 O   0  0  0  0  0  0  0  0  0  0  0  0
    1.3760    0.0000    0.0000 C   0  0  0  0  0  0  0  0  0  0  0  0
    2.0871   -0.0000    1.2027 C   0  0  0  0  0  0  0  0  0  0  0  0
    3.4898   -0.0010    1.2110 C   0  0  0  0  0  0  0  0  0  0  0  0
    4.2380    0.0009    0.0236 C   0  0  0  0  0  0  0  0  0  0  0  0
    3.4886    0.0155   -1.1687 C   0  0  0  0  0  0  0  0  0  0  0  0
    2.0874    0.0194   -1.1991 C   0  0  0  0  0  0  0  0  0  0  0  0
    1.4106    0.0350   -2.3970 O   0  0  0  0  0  0  0  0  0  0  0  0
    1.0947    1.3030   -2.9475 C   0  0  0  0  0  0  0  0  0  0  0  0
    2.2169    1.8605   -3.8190 C   0  0  0  0  0  0  0  0  0  0  0  0
    1.5211    2.8263   -4.7721 C   0  0  0  0  0  0  0  0  0  0  0  0
    0.0545    2.3962   -4.8169 C   0  0  0  0  0  0  0  0  0  0  0  0
   -0.0331    1.1397   -3.9630 C   0  0  0  0  0  0  0  0  0  0  0  0
    5.7240    0.0004    0.0238 C   0  0  2  0  0  0  0  0  0  0  0  0
    6.2767   -1.1970    0.7840 C   0  0  0  0  0  0  0  0  0  0  0  0
    6.4353   -0.7109    2.1282 N   0  0  0  0  0  0  0  0  0  0  0  0
    6.4544    0.6767    2.2004 C   0  0  0  0  0  0  0  0  0  0  0  0
    6.6206    1.3641    3.1961 O   0  0  0  0  0  0  0  0  0  0  0  0
    6.2795    1.2020    0.7943 C   0  0  0  0  0  0  0  0  0  0  0  0
   -1.7340    0.0000    1.1018 H   0  0  0  0  0  0  0  0  0  0  0  0
   -0.3819    0.8975    1.8343 H   0  0  0  0  0  0  0  0  0  0  0  0
   -0.3819   -0.8975    1.8343 H   0  0  0  0  0  0  0  0  0  0  0  0
    1.5574    0.0042    2.1525 H   0  0  0  0  0  0  0  0  0  0  0  0
    3.9786    0.0043    2.1820 H   0  0  0  0  0  0  0  0  0  0  0  0
    4.0274    0.0242   -2.1154 H   0  0  0  0  0  0  0  0  0  0  0  0
    0.7747    2.0200   -2.1790 H   0  0  0  0  0  0  0  0  0  0  0  0
    2.9963    2.3568   -3.2326 H   0  0  0  0  0  0  0  0  0  0  0  0
    2.7058    1.0535   -4.3793 H   0  0  0  0  0  0  0  0  0  0  0  0
    1.9816    2.7991   -5.7649 H   0  0  0  0  0  0  0  0  0  0  0  0
    1.5971    3.8553   -4.4028 H   0  0  0  0  0  0  0  0  0  0  0  0
   -0.2884    2.2135   -5.8400 H   0  0  0  0  0  0  0  0  0  0  0  0
   -0.5757    3.1871   -4.3939 H   0  0  0  0  0  0  0  0  0  0  0  0
    0.1236    0.2433   -4.5764 H   0  0  0  0  0  0  0  0  0  0  0  0
   -1.0094    1.0294   -3.4804 H   0  0  0  0  0  0  0  0  0  0  0  0
    6.0580    0.0022   -1.0188 H   0  0  0  0  0  0  0  0  0  0  0  0
    5.6256   -2.0760    0.7843 H   0  0  0  0  0  0  0  0  0  0  0  0
    7.2691   -1.4811    0.4183 H   0  0  0  0  0  0  0  0  0  0  0  0
    6.5725   -1.3133    2.9337 H   0  0  0  0  0  0  0  0  0  0  0  0
    5.6144    2.0704    0.7868 H   0  0  0  0  0  0  0  0  0  0  0  0
    7.2656    1.4897    0.4142 H   0  0  0  0  0  0  0  0  0  0  0  0
  1  2  1  0
  2  3  1  0
  3  4  2  0
  4  5  1  0
  5  6  2  0
  6  7  1  0
  7  8  2  0
  8  9  1  0
  9 10  1  0
 10 11  1  0
 11 12  1  0
 12 13  1  0
 13 14  1  0
 15  6  1  0
 15 16  1  0
 16 17  1  0
 17 18  1  0
 18 19  2  0
 18 20  1  0
  8  3  1  0
 14 10  1  0
 20 15  1  0
  1 21  1  0
  1 22  1  0
  1 23  1  0
  4 24  1  0
  5 25  1  0
  7 26  1  0
 10 27  1  0
 11 28  1  0
 11 29  1  0
 12 30  1  0
 12 31  1  0
 13 32  1  0
 13 33  1  0
 14 34  1  0
 14 35  1  0
 15 36  1  6
 16 37  1  0
 16 38  1  0
 17 39  1  0
 20 40  1  0
 20 41  1  0
M  END
>  <_MoleculeID>  (20) 
smi3

>  <_InputIndex>  (20) 
3

>  <_InputSMILES>  (20) 
COc1ccc(cc1OC1CCCC1)[C@H]1CNC(=O)C1

>  <_InputInChIKey>  (20) 
HJORMJIFDVBMOB-GFCCVEGCSA-N

>  <_SMILES>  (20) 
COc1ccc([C@H]2CNC(=O)C2)cc1OC1CCCC1

>  <_InChIKey>  (20) 
HJORMJIFDVBMOB-GFCCVEGCSA-N

$$$$
smi3_conf1
     RDKit          3D

 41 43  0  0  0  0  0  0  0  0999 V2000
   -0.6538   -0.0000    1.2702 C   0  0  0  0  0  0  0  0  0  0  0  0
    0.0000   -0.0000    0.0000 O   0  0  0  0  0  0  0  0  0  0  0  0
    1.3760    0.0000    0.0000 C   0  0  0  0  0  0  0  0  0  0  0  0
    2.0871    0.0000    1.2027 C   0  0  0  0  0  0  0  0  0  0  0  0
    3.4898   -0.0010    1.2110 C   0  0  0  0  0  0  0  0  0  0  0  0
    4.2380    0.0009    0.0236 C   0  0  0  0  0  0  0  0  0  0  0  0
    3.4886    0.0155   -1.1687 C   0  0  0  0  0  0  0  0  0  0  0  0
    2.0874    0.0194   -1.1991 C   0  0  0  0  0  0  0  0  0  0  0  0
    1.4106    0.0350   -2.3970 O   0  0  0  0  0  0  0  0  0  0  0  0
    1.0947    1.3030   -2.9475 C   0  0  0  0  0  0  0  0  0  0  0  0
   -0.4199    1.4249   -3.1415 C   0  0  0  0  0  0  0  0  0  0  0  0
   -0.6444    1.5270   -4.6493 C   0  0  0  0  0  0  0  0  0  0  0  0
    0.6174    0.9541   -5.2727 C   0  0  0  0  0  0  0  0  0  0  0  0
    1.7138    1.4396   -4.3357 C   0  0  0  0  0  0  0  0  0  0  0  0
    5.7240    0.0004    0.0238 C   0  0  1  0  0  0  0  0  0  0  0  0
    6.2775    1.1946    0.7883 C   0  0  0  0  0  0  0  0  0  0  0  0
    6.4358    0.7035    2.1308 N   0  0  0  0  0  0  0  0  0  0  0  0
    6.4539   -0.6843    2.1980 C   0  0  0  0  0  0  0  0  0  0  0  0
    6.6197   -1.3754    3.1912 O   0  0  0  0  0  0  0  0  0  0  0  0
    6.2787   -1.2044    0.7899 C   0  0  0  0  0  0  0  0  0  0  0  0
   -1.7340    0.0000    1.1018 H   0  0  0  0  0  0  0  0  0  0  0  0
   -0.3819    0.8975    1.8343 H   0  0  0  0  0  0  0  0  0  0  0  0
   -0.3819   -0.8975    1.8343 H   0  0  0  0  0  0  0  0  0  0  0  0
    1.5574    0.0042    2.1525 H   0  0  0  0  0  0  0  0  0  0  0  0
    3.9786    0.0043    2.1820 H   0  0  0  0  0  0  0  0  0  0  0  0
    4.0274    0.0242   -2.1154 H   0  0  0  0  0  0  0  0  0  0  0  0
    1.4800    2.0619   -2.2601 H   0  0  0  0  0  0  0  0  0  0  0  0
   -0.9515    0.5601   -2.7289 H   0  0  0  0  0  0  0  0  0  0  0  0
   -0.8105    2.3214   -2.6481 H   0  0  0  0  0  0  0  0  0  0  0  0
   -1.5451    0.9954   -4.9703 H   0  0  0  0  0  0  0  0  0  0  0  0
   -0.7574    2.5796   -4.9359 H   0  0  0  0  0  0  0  0  0  0  0  0
    0.7662    1.2984   -6.3001 H   0  0  0  0  0  0  0  0  0  0  0  0
    0.5756   -0.1413   -5.2803 H   0  0  0  0  0  0  0  0  0  0  0  0
    1.9306    2.4936   -4.5459 H   0  0  0  0  0  0  0  0  0  0  0  0
    2.6334    0.8593   -4.4570 H   0  0  0  0  0  0  0  0  0  0  0  0
    6.0580    0.0022   -1.0188 H   0  0  0  0  0  0  0  0  0  0  0  0
    5.6270    2.0741    0.7919 H   0  0  0  0  0  0  0  0  0  0  0  0
    7.2701    1.4794    0.4237 H   0  0  0  0  0  0  0  0  0  0  0  0
    6.5733    1.3030    2.9384 H   0  0  0  0  0  0  0  0  0  0  0  0
    5.6130   -2.0723    0.7793 H   0  0  0  0  0  0  0  0  0  0  0  0
    7.2647   -1.4913    0.4088 H   0  0  0  0  0  0  0  0  0  0  0  0
  1  2  1  0
  2  3  1  0
  3  4  2  0
  4  5  1  0
  5  6  2  0
  6  7  1  0
  7  8  2  0
  8  9  1  0
  9 10  1  0
 10 11  1  0
 11 12  1  0
 12 13  1  0
 13 14  1  0
 15  6  1  0
 15 16  1  0
 16 17  1  0
 17 18  1  0
 18 19  2  0
 18 20  1  0
  8  3  1  0
 14 10  1  0
 20 15  1  0
  1 21  1  0
  1 22  1  0
  1 23  1  0
  4 24  1  0
  5 25  1  0
  7 26  1  0
 10 27  1  0
 11 28  1  0
 11 29  1  0
 12 30  1  0
 12 31  1  0
 13 32  1  0
 13 33  1  0
 14 34  1  0
 14 35  1  0
 15 36  1  6
 16 37  1  0
 16 38  1  0
 17 39  1  0
 20 40  1  0
 20 41  1  0
M  END
>  <_MoleculeID>  (21) 
smi3

>  <_InputIndex>  (21) 
3

>  <_InputSMILES>  (21) 
COc1ccc(cc1OC1CCCC1)[C@H]1CNC(=O)C1

>  <_InputInChIKey>  (21) 
HJORMJIFDVBMOB-GFCCVEGCSA-N

>  <_SMILES>  (21) 
COc1ccc([C@H]2CNC(=O)C2)cc1OC1CCCC1

>  <_InChIKey>  (21) 
HJORMJIFDVBMOB-GFCCVEGCSA-N

$$$$
smi3_conf2
     RDKit          3D

 41 43  0  0  0  0  0  0  0  0999 V2000
   -0.6538   -0.0000    1.2702 C   0  0  0  0  0  0  0  0  0  0  0  0
    0.0000   -0.0000    0.0000 O   0  0  0  0  0  0  0  0  0  0  0  0
    1.3760    0.0000    0.0000 C   0  0  0  0  0  0  0  0  0  0  0  0
    2.0871   -0.0000    1.2027 C   0  0  0  0  0  0  0  0  0  0  0  0
    3.4898   -0.0010    1.2110 C   0  0  0  0  0  0  0  0  0  0  0  0
    4.2380    0.0009    0.0236 C   0  0  0  0  0  0  0  0  0  0  0  0
    3.4886    0.0155   -1.1687 C   0  0  0  0  0  0  0  0  0  0  0  0
    2.0874    0.0194   -1.1991 C   0  0  0  0  0  0  0  0  0  0  0  0
    1.4106    0.0350   -2.3970 O   0  0  0  0  0  0  0  0  0  0  0  0
    1.0947    1.3030   -2.9475 C   0  0  0  0  0  0  0  0  0  0  0  0
    2.2689    1.9036   -3.7040 C   0  0  0  0  0  0  0  0  0  0  0  0
    1.6053    2.9684   -4.5605 C   0  0  0  0  0  0  0  0  0  0  0  0
    0.2675    2.3581   -4.9753 C   0  0  0  0  0  0  0  0  0  0  0  0
   -0.0033    1.2111   -4.0010 C   0  0  0  0  0  0  0  0  0  0  0  0
    5.7240    0.0004    0.0238 C   0  0  2  0  0  0  0  0  0  0  0  0
    6.2777    1.1974   -0.7363 C   0  0  0  0  0  0  0  0  0  0  0  0
    6.4363    0.7112   -2.0805 N   0  0  0  0  0  0  0  0  0  0  0  0
    6.4545   -0.6764   -2.1527 C   0  0  0  0  0  0  0  0  0  0  0  0
    6.6205   -1.3639   -3.1483 O   0  0  0  0  0  0  0  0  0  0  0  0
    6.2789   -1.2016   -0.7466 C   0  0  0  0  0  0  0  0  0  0  0  0
   -1.7340    0.0000    1.1018 H   0  0  0  0  0  0  0  0  0  0  0  0
   -0.3819    0.8975    1.8343 H   0  0  0  0  0  0  0  0  0  0  0  0
   -0.3819   -0.8975    1.8343 H   0  0  0  0  0  0  0  0  0  0  0  0
    1.5574    0.0042    2.1525 H   0  0  0  0  0  0  0  0  0  0  0  0
    3.9786    0.0043    2.1820 H   0  0  0  0  0  0  0  0  0  0  0  0
    4.0274    0.0242   -2.1154 H   0  0  0  0  0  0  0  0  0  0  0  0
    0.7846    1.9679   -2.1331 H   0  0  0  0  0  0  0  0  0  0  0  0
    2.7636    1.1492   -4.3278 H   0  0  0  0  0  0  0  0  0  0  0  0
    3.0260    2.3172   -3.0308 H   0  0  0  0  0  0  0  0  0  0  0  0
    2.2171    3.2507   -5.4223 H   0  0  0  0  0  0  0  0  0  0  0  0
    1.4294    3.8718   -3.9641 H   0  0  0  0  0  0  0  0  0  0  0  0
   -0.5295    3.1084   -4.9472 H   0  0  0  0  0  0  0  0  0  0  0  0
    0.3193    1.9734   -6.0000 H   0  0  0  0  0  0  0  0  0  0  0  0
   -0.9969    1.2896   -3.5472 H   0  0  0  0  0  0  0  0  0  0  0  0
    0.0274    0.2491   -4.5264 H   0  0  0  0  0  0  0  0  0  0  0  0
    6.0577   -0.0016    1.0665 H   0  0  0  0  0  0  0  0  0  0  0  0
    5.6272    2.0769   -0.7368 H   0  0  0  0  0  0  0  0  0  0  0  0
    7.2702    1.4808   -0.3704 H   0  0  0  0  0  0  0  0  0  0  0  0
    6.5741    1.3135   -2.8859 H   0  0  0  0  0  0  0  0  0  0  0  0
    5.6132   -2.0695   -0.7393 H   0  0  0  0  0  0  0  0  0  0  0  0
    7.2648   -1.4899   -0.3662 H   0  0  0  0  0  0  0  0  0  0  0  0
  1  2  1  0
  2  3  1  0
  3  4  2  0
  4  5  1  0
  5  6  2  0
  6  7  1  0
  7  8  2  0
  8  9  1  0
  9 10  1  0
 10 11  1  0
 11 12  1  0
 12 13  1  0
 13 14  1  0
 15  6  1  0
 15 16  1  0
 16 17  1  0
 17 18  1  0
 18 19  2  0
 18 20  1  0
  8  3  1  0
 14 10  1  0
 20 15  1  0
  1 21  1  0
  1 22  1  0
  1 23  1  0
  4 24  1  0
  5 25  1  0
  7 26  1  0
 10 27  1  0
 11 28  1  0
 11 29  1  0
 12 30  1  0
 12 31  1  0
 13 32  1  0
 13 33  1  0
 14 34  1  0
 14 35  1  0
 15 36  1  1
 16 37  1  0
 16 38  1  0
 17 39  1  0
 20 40  1  0
 20 41  1  0
M  END
>  <_MoleculeID>  (22) 
smi3

>  <_InputIndex>  (22) 
3

>  <_InputSMILES>  (22) 
COc1ccc(cc1OC1CCCC1)[C@H]1CNC(=O)C1

>  <_InputInChIKey>  (22) 
HJORMJIFDVBMOB-GFCCVEGCSA-N

>  <_SMILES>  (22) 
COc1ccc([C@H]2CNC(=O)C2)cc1OC1CCCC1

>  <_InChIKey>  (22) 
HJORMJIFDVBMOB-GFCCVEGCSA-N

$$$$
smi3_conf3
     RDKit          3D

 41 43  0  0  0  0  0  0  0  0999 V2000
   -0.6538   -0.0000    1.2702 C   0  0  0  0  0  0  0  0  0  0  0  0
    0.0000   -0.0000    0.0000 O   0  0  0  0  0  0  0  0  0  0  0  0
    1.3760    0.0000    0.0000 C   0  0  0  0  0  0  0  0  0  0  0  0
    2.0871    0.0000    1.2027 C   0  0  0  0  0  0  0  0  0  0  0  0
    3.4898   -0.0010    1.2110 C   0  0  0  0  0  0  0  0  0  0  0  0
    4.2380    0.0009    0.0236 C   0  0  0  0  0  0  0  0  0  0  0  0
    3.4886    0.0155   -1.1687 C   0  0  0  0  0  0  0  0  0  0  0  0
    2.0874    0.0194   -1.1991 C   0  0  0  0  0  0  0  0  0  0  0  0
    1.4106    0.0350   -2.3970 O   0  0  0  0  0  0  0  0  0  0  0  0
    1.0882   -1.2184   -2.9766 C   0  0  0  0  0  0  0  0  0  0  0  0
    1.7066   -1.3254   -4.3676 C   0  0  0  0  0  0  0  0  0  0  0  0
    0.6140   -0.8075   -5.2917 C   0  0  0  0  0  0  0  0  0  0  0  0
   -0.6523   -1.3868   -4.6836 C   0  0  0  0  0  0  0  0  0  0  0  0
   -0.4269   -1.3277   -3.1736 C   0  0  0  0  0  0  0  0  0  0  0  0
    5.7240    0.0004    0.0238 C   0  0  1  0  0  0  0  0  0  0  0  0
    6.2769   -1.1942   -0.7406 C   0  0  0  0  0  0  0  0  0  0  0  0
    6.4359   -0.7032   -2.0830 N   0  0  0  0  0  0  0  0  0  0  0  0
    6.4549    0.6846   -2.1502 C   0  0  0  0  0  0  0  0  0  0  0  0
    6.6214    1.3756   -3.1434 O   0  0  0  0  0  0  0  0  0  0  0  0
    6.2797    1.2048   -0.7422 C   0  0  0  0  0  0  0  0  0  0  0  0
   -1.7340    0.0000    1.1018 H   0  0  0  0  0  0  0  0  0  0  0  0
   -0.3819    0.8975    1.8343 H   0  0  0  0  0  0  0  0  0  0  0  0
   -0.3819   -0.8975    1.8343 H   0  0  0  0  0  0  0  0  0  0  0  0
    1.5574    0.0042    2.1525 H   0  0  0  0  0  0  0  0  0  0  0  0
    3.9786    0.0043    2.1820 H   0  0  0  0  0  0  0  0  0  0  0  0
    4.0274    0.0242   -2.1154 H   0  0  0  0  0  0  0  0  0  0  0  0
    1.4695   -1.9949   -2.3069 H   0  0  0  0  0  0  0  0  0  0  0  0
    1.9151   -2.3755   -4.6041 H   0  0  0  0  0  0  0  0  0  0  0  0
    2.6306   -0.7493   -4.4743 H   0  0  0  0  0  0  0  0  0  0  0  0
    0.7605   -1.1260   -6.3277 H   0  0  0  0  0  0  0  0  0  0  0  0
    0.5804    0.2880   -5.2707 H   0  0  0  0  0  0  0  0  0  0  0  0
   -1.5485   -0.8391   -4.9896 H   0  0  0  0  0  0  0  0  0  0  0  0
   -0.7742   -2.4302   -4.9987 H   0  0  0  0  0  0  0  0  0  0  0  0
   -0.9543   -0.4721   -2.7370 H   0  0  0  0  0  0  0  0  0  0  0  0
   -0.8216   -2.2359   -2.7052 H   0  0  0  0  0  0  0  0  0  0  0  0
    6.0577   -0.0016    1.0665 H   0  0  0  0  0  0  0  0  0  0  0  0
    5.6258   -2.0733   -0.7443 H   0  0  0  0  0  0  0  0  0  0  0  0
    7.2692   -1.4797   -0.3757 H   0  0  0  0  0  0  0  0  0  0  0  0
    6.5732   -1.3028   -2.8906 H   0  0  0  0  0  0  0  0  0  0  0  0
    5.6146    2.0731   -0.7318 H   0  0  0  0  0  0  0  0  0  0  0  0
    7.2657    1.4911   -0.3608 H   0  0  0  0  0  0  0  0  0  0  0  0
  1  2  1  0
  2  3  1  0
  3  4  2  0
  4  5  1  0
  5  6  2  0
  6  7  1  0
  7  8  2  0
  8  9  1  0
  9 10  1  0
 10 11  1  0
 11 12  1  0
 12 13  1  0
 13 14  1  0
 15  6  1  0
 15 16  1  0
 16 17  1  0
 17 18  1  0
 18 19  2  0
 18 20  1  0
  8  3  1  0
 14 10  1  0
 20 15  1  0
  1 21  1  0
  1 22  1  0
  1 23  1  0
  4 24  1  0
  5 25  1  0
  7 26  1  0
 10 27  1  0
 11 28  1  0
 11 29  1  0
 12 30  1  0
 12 31  1  0
 13 32  1  0
 13 33  1  0
 14 34  1  0
 14 35  1  0
 15 36  1  1
 16 37  1  0
 16 38  1  0
 17 39  1  0
 20 40  1  0
 20 41  1  0
M  END
>  <_MoleculeID>  (23) 
smi3

>  <_InputIndex>  (23) 
3

>  <_InputSMILES>  (23) 
COc1ccc(cc1OC1CCCC1)[C@H]1CNC(=O)C1

>  <_InputInChIKey>  (23) 
HJORMJIFDVBMOB-GFCCVEGCSA-N

>  <_SMILES>  (23) 
COc1ccc([C@H]2CNC(=O)C2)cc1OC1CCCC1

>  <_InChIKey>  (23) 
HJORMJIFDVBMOB-GFCCVEGCSA-N

$$$$
smi3_conf4
     RDKit          3D

 41 43  0  0  0  0  0  0  0  0999 V2000
   -0.6538   -0.0000    1.2702 C   0  0  0  0  0  0  0  0  0  0  0  0
    0.0000   -0.0000    0.0000 O   0  0  0  0  0  0  0  0  0  0  0  0
    1.3760    0.0000    0.0000 C   0  0  0  0  0  0  0  0  0  0  0  0
    2.0871   -0.0000    1.2027 C   0  0  0  0  0  0  0  0  0  0  0  0
    3.4898   -0.0010    1.2110 C   0  0  0  0  0  0  0  0  0  0  0  0
    4.2380    0.0009    0.0236 C   0  0  0  0  0  0  0  0  0  0  0  0
    3.4886    0.0155   -1.1687 C   0  0  0  0  0  0  0  0  0  0  0  0
    2.0874    0.0194   -1.1991 C   0  0  0  0  0  0  0  0  0  0  0  0
    1.4106    0.0350   -2.3970 O   0  0  0  0  0  0  0  0  0  0  0  0
    1.0947    1.3030   -2.9475 C   0  0  0  0  0  0  0  0  0  0  0  0
    0.0944    1.2111   -4.0967 C   0  0  0  0  0  0  0  0  0  0  0  0
    0.3440    2.4661   -4.9261 C   0  0  0  0  0  0  0  0  0  0  0  0
    1.7656    2.9198   -4.5929 C   0  0  0  0  0  0  0  0  0  0  0  0
    2.3268    1.8617   -3.6541 C   0  0  0  0  0  0  0  0  0  0  0  0
    5.7240    0.0004    0.0238 C   0  0  1  0  0  0  0  0  0  0  0  0
    6.2769   -1.1942   -0.7406 C   0  0  0  0  0  0  0  0  0  0  0  0
    6.4359   -0.7032   -2.0830 N   0  0  0  0  0  0  0  0  0  0  0  0
    6.4549    0.6846   -2.1502 C   0  0  0  0  0  0  0  0  0  0  0  0
    6.6214    1.3756   -3.1434 O   0  0  0  0  0  0  0  0  0  0  0  0
    6.2797    1.2048   -0.7422 C   0  0  0  0  0  0  0  0  0  0  0  0
   -1.7340    0.0000    1.1018 H   0  0  0  0  0  0  0  0  0  0  0  0
   -0.3819    0.8975    1.8343 H   0  0  0  0  0  0  0  0  0  0  0  0
   -0.3819   -0.8975    1.8343 H   0  0  0  0  0  0  0  0  0  0  0  0
    1.5574    0.0042    2.1525 H   0  0  0  0  0  0  0  0  0  0  0  0
    3.9786    0.0043    2.1820 H   0  0  0  0  0  0  0  0  0  0  0  0
    4.0274    0.0242   -2.1154 H   0  0  0  0  0  0  0  0  0  0  0  0
    0.7747    2.0200   -2.1790 H   0  0  0  0  0  0  0  0  0  0  0  0
   -0.9411    1.1520   -3.7480 H   0  0  0  0  0  0  0  0  0  0  0  0
    0.2797    0.3112   -4.6968 H   0  0  0  0  0  0  0  0  0  0  0  0
    0.2243    2.2614   -5.9949 H   0  0  0  0  0  0  0  0  0  0  0  0
   -0.3708    3.2532   -4.6604 H   0  0  0  0  0  0  0  0  0  0  0  0
    2.3819    3.0306   -5.4905 H   0  0  0  0  0  0  0  0  0  0  0  0
    1.7347    3.8941   -4.0915 H   0  0  0  0  0  0  0  0  0  0  0  0
    2.8398    1.0744   -4.2209 H   0  0  0  0  0  0  0  0  0  0  0  0
    3.0554    2.2731   -2.9484 H   0  0  0  0  0  0  0  0  0  0  0  0
    6.0577   -0.0016    1.0665 H   0  0  0  0  0  0  0  0  0  0  0  0
    5.6258   -2.0733   -0.7443 H   0  0  0  0  0  0  0  0  0  0  0  0
    7.2692   -1.4797   -0.3757 H   0  0  0  0  0  0  0  0  0  0  0  0
    6.5732   -1.3028   -2.8906 H   0  0  0  0  0  0  0  0  0  0  0  0
    5.6146    2.0731   -0.7318 H   0  0  0  0  0  0  0  0  0  0  0  0
    7.2657    1.4911   -0.3608 H   0  0  0  0  0  0  0  0  0  0  0  0
  1  2  1  0
  2  3  1  0
  3  4  2  0
  4  5  1  0
  5  6  2  0
  6  7  1  0
  7  8  2  0
  8  9  1  0
  9 10  1  0
 10 11  1  0
 11 12  1  0
 12 13  1  0
 13 14  1  0
 15  6  1  0
 15 16  1  0
 16 17  1  0
 17 18  1  0
 18 19  2  0
 18 20  1  0
  8  3  1  0
 14 10  1  0
 20 15  1  0
  1 21  1  0
  1 22  1  0
  1 23  1  0
  4 24  1  0
  5 25  1  0
  7 26  1  0
 10 27  1  0
 11 28  1  0
 11 29  1  0
 12 30  1  0
 12 31  1  0
 13 32  1  0
 13 33  1  0
 14 34  1  0
 14 35  1  0
 15 36  1  1
 16 37  1  0
 16 38  1  0
 17 39  1  0
 20 40  1  0
 20 41  1  0
M  END
>  <_MoleculeID>  (24) 
smi3

>  <_InputIndex>  (24) 
3

>  <_InputSMILES>  (24) 
COc1ccc(cc1OC1CCCC1)[C@H]1CNC(=O)C1

>  <_InputInChIKey>  (24) 
HJORMJIFDVBMOB-GFCCVEGCSA-N

>  <_SMILES>  (24) 
COc1ccc([C@H]2CNC(=O)C2)cc1OC1CCCC1

>  <_InChIKey>  (24) 
HJORMJIFDVBMOB-GFCCVEGCSA-N

$$$$
smi3_conf5
     RDKit          3D

 41 43  0  0  0  0  0  0  0  0999 V2000
   -0.6538   -0.0000    1.2702 C   0  0  0  0  0  0  0  0  0  0  0  0
    0.0000   -0.0000    0.0000 O   0  0  0  0  0  0  0  0  0  0  0  0
    1.3760    0.0000    0.0000 C   0  0  0  0  0  0  0  0  0  0  0  0
    2.0871    0.0000    1.2027 C   0  0  0  0  0  0  0  0  0  0  0  0
    3.4898   -0.0010    1.2110 C   0  0  0  0  0  0  0  0  0  0  0  0
    4.2380    0.0009    0.0236 C   0  0  0  0  0  0  0  0  0  0  0  0
    3.4886    0.0155   -1.1687 C   0  0  0  0  0  0  0  0  0  0  0  0
    2.0874    0.0194   -1.1991 C   0  0  0  0  0  0  0  0  0  0  0  0
    1.4106    0.0350   -2.3970 O   0  0  0  0  0  0  0  0  0  0  0  0
    1.0947    1.3030   -2.9475 C   0  0  0  0  0  0  0  0  0  0  0  0
    0.7572    1.2130   -4.4274 C   0  0  0  0  0  0  0  0  0  0  0  0
    0.0310    2.5222   -4.6848 C   0  0  0  0  0  0  0  0  0  0  0  0
   -0.7839    2.7726   -3.4171 C   0  0  0  0  0  0  0  0  0  0  0  0
   -0.1641    1.8979   -2.3267 C   0  0  0  0  0  0  0  0  0  0  0  0
    5.7240    0.0004    0.0238 C   0  0  2  0  0  0  0  0  0  0  0  0
    6.2777    1.1974   -0.7363 C   0  0  0  0  0  0  0  0  0  0  0  0
    6.4363    0.7112   -2.0805 N   0  0  0  0  0  0  0  0  0  0  0  0
    6.4545   -0.6764   -2.1527 C   0  0  0  0  0  0  0  0  0  0  0  0
    6.6205   -1.3639   -3.1483 O   0  0  0  0  0  0  0  0  0  0  0  0
    6.2789   -1.2016   -0.7466 C   0  0  0  0  0  0  0  0  0  0  0  0
   -1.7340    0.0000    1.1018 H   0  0  0  0  0  0  0  0  0  0  0  0
   -0.3819    0.8975    1.8343 H   0  0  0  0  0  0  0  0  0  0  0  0
   -0.3819   -0.8975    1.8343 H   0  0  0  0  0  0  0  0  0  0  0  0
    1.5574    0.0042    2.1525 H   0  0  0  0  0  0  0  0  0  0  0  0
    3.9786    0.0043    2.1820 H   0  0  0  0  0  0  0  0  0  0  0  0
    4.0274    0.0242   -2.1154 H   0  0  0  0  0  0  0  0  0  0  0  0
    1.9482    1.9725   -2.7904 H   0  0  0  0  0  0  0  0  0  0  0  0
    0.1052    0.3549   -4.6317 H   0  0  0  0  0  0  0  0  0  0  0  0
    1.6507    1.0986   -5.0486 H   0  0  0  0  0  0  0  0  0  0  0  0
   -0.5968    2.4812   -5.5797 H   0  0  0  0  0  0  0  0  0  0  0  0
    0.7577    3.3320   -4.8221 H   0  0  0  0  0  0  0  0  0  0  0  0
   -0.7650    3.8327   -3.1436 H   0  0  0  0  0  0  0  0  0  0  0  0
   -1.8322    2.4923   -3.5697 H   0  0  0  0  0  0  0  0  0  0  0  0
    0.0717    2.4762   -1.4271 H   0  0  0  0  0  0  0  0  0  0  0  0
   -0.8672    1.1138   -2.0211 H   0  0  0  0  0  0  0  0  0  0  0  0
    6.0577   -0.0016    1.0665 H   0  0  0  0  0  0  0  0  0  0  0  0
    5.6272    2.0769   -0.7368 H   0  0  0  0  0  0  0  0  0  0  0  0
    7.2702    1.4808   -0.3704 H   0  0  0  0  0  0  0  0  0  0  0  0
    6.5741    1.3135   -2.8859 H   0  0  0  0  0  0  0  0  0  0  0  0
    5.6132   -2.0695   -0.7393 H   0  0  0  0  0  0  0  0  0  0  0  0
    7.2648   -1.4899   -0.3662 H   0  0  0  0  0  0  0  0  0  0  0  0
  1  2  1  0
  2  3  1  0
  3  4  2  0
  4  5  1  0
  5  6  2  0
  6  7  1  0
  7  8  2  0
  8  9  1  0
  9 10  1  0
 10 11  1  0
 11 12  1  0
 12 13  1  0
 13 14  1  0
 15  6  1  0
 15 16  1  0
 16 17  1  0
 17 18  1  0
 18 19  2  0
 18 20  1  0
  8  3  1  0
 14 10  1  0
 20 15  1  0
  1 21  1  0
  1 22  1  0
  1 23  1  0
  4 24  1  0
  5 25  1  0
  7 26  1  0
 10 27  1  0
 11 28  1  0
 11 29  1  0
 12 30  1  0
 12 31  1  0
 13 32  1  0
 13 33  1  0
 14 34  1  0
 14 35  1  0
 15 36  1  1
 16 37  1  0
 16 38  1  0
 17 39  1  0
 20 40  1  0
 20 41  1  0
M  END
>  <_MoleculeID>  (25) 
smi3

>  <_InputIndex>  (25) 
3

>  <_InputSMILES>  (25) 
COc1ccc(cc1OC1CCCC1)[C@H]1CNC(=O)C1

>  <_InputInChIKey>  (25) 
HJORMJIFDVBMOB-GFCCVEGCSA-N

>  <_SMILES>  (25) 
COc1ccc([C@H]2CNC(=O)C2)cc1OC1CCCC1

>  <_InChIKey>  (25) 
HJORMJIFDVBMOB-GFCCVEGCSA-N

$$$$
smi3_conf6
     RDKit          3D

 41 43  0  0  0  0  0  0  0  0999 V2000
   -0.6538   -0.0000    1.2702 C   0  0  0  0  0  0  0  0  0  0  0  0
    0.0000   -0.0000    0.0000 O   0  0  0  0  0  0  0  0  0  0  0  0
    1.3760    0.0000    0.0000 C   0  0  0  0  0  0  0  0  0  0  0  0
    2.0871    0.0000    1.2027 C   0  0  0  0  0  0  0  0  0  0  0  0
    3.4898   -0.0010    1.2110 C   0  0  0  0  0  0  0  0  0  0  0  0
    4.2380    0.0009    0.0236 C   0  0  0  0  0  0  0  0  0  0  0  0
    3.4886    0.0155   -1.1687 C   0  0  0  0  0  0  0  0  0  0  0  0
    2.0874    0.0194   -1.1991 C   0  0  0  0  0  0  0  0  0  0  0  0
    1.4106    0.0350   -2.3970 O   0  0  0  0  0  0  0  0  0  0  0  0
    1.0882   -1.2184   -2.9766 C   0  0  0  0  0  0  0  0  0  0  0  0
   -0.0194   -1.0457   -4.0121 C   0  0  0  0  0  0  0  0  0  0  0  0
    0.7336   -0.8269   -5.3163 C   0  0  0  0  0  0  0  0  0  0  0  0
    1.8959   -1.7996   -5.2084 C   0  0  0  0  0  0  0  0  0  0  0  0
    2.2994   -1.7695   -3.7351 C   0  0  0  0  0  0  0  0  0  0  0  0
    5.7240    0.0004    0.0238 C   0  0  2  0  0  0  0  0  0  0  0  0
    6.2767   -1.1970    0.7840 C   0  0  0  0  0  0  0  0  0  0  0  0
    6.4353   -0.7109    2.1282 N   0  0  0  0  0  0  0  0  0  0  0  0
    6.4544    0.6767    2.2004 C   0  0  0  0  0  0  0  0  0  0  0  0
    6.6206    1.3641    3.1961 O   0  0  0  0  0  0  0  0  0  0  0  0
    6.2795    1.2020    0.7943 C   0  0  0  0  0  0  0  0  0  0  0  0
   -1.7340    0.0000    1.1018 H   0  0  0  0  0  0  0  0  0  0  0  0
   -0.3819    0.8975    1.8343 H   0  0  0  0  0  0  0  0  0  0  0  0
   -0.3819   -0.8975    1.8343 H   0  0  0  0  0  0  0  0  0  0  0  0
    1.5574    0.0042    2.1525 H   0  0  0  0  0  0  0  0  0  0  0  0
    3.9786    0.0043    2.1820 H   0  0  0  0  0  0  0  0  0  0  0  0
    4.0274    0.0242   -2.1154 H   0  0  0  0  0  0  0  0  0  0  0  0
    0.7785   -1.8830   -2.1646 H   0  0  0  0  0  0  0  0  0  0  0  0
   -0.6107   -1.9662   -4.0839 H   0  0  0  0  0  0  0  0  0  0  0  0
   -0.6911   -0.2111   -3.7901 H   0  0  0  0  0  0  0  0  0  0  0  0
    0.1100   -1.0206   -6.1937 H   0  0  0  0  0  0  0  0  0  0  0  0
    1.1031    0.2033   -5.3784 H   0  0  0  0  0  0  0  0  0  0  0  0
    2.7250   -1.5315   -5.8698 H   0  0  0  0  0  0  0  0  0  0  0  0
    1.5642   -2.8091   -5.4804 H   0  0  0  0  0  0  0  0  0  0  0  0
    3.1867   -1.1431   -3.5899 H   0  0  0  0  0  0  0  0  0  0  0  0
    2.5485   -2.7820   -3.3993 H   0  0  0  0  0  0  0  0  0  0  0  0
    6.0580    0.0022   -1.0188 H   0  0  0  0  0  0  0  0  0  0  0  0
    5.6256   -2.0760    0.7843 H   0  0  0  0  0  0  0  0  0  0  0  0
    7.2691   -1.4811    0.4183 H   0  0  0  0  0  0  0  0  0  0  0  0
    6.5725   -1.3133    2.9337 H   0  0  0  0  0  0  0  0  0  0  0  0
    5.6144    2.0704    0.7868 H   0  0  0  0  0  0  0  0  0  0  0  0
    7.2656    1.4897    0.4142 H   0  0  0  0  0  0  0  0  0  0  0  0
  1  2  1  0
  2  3  1  0
  3  4  2  0
  4  5  1  0
  5  6  2  0
  6  7  1  0
  7  8  2  0
  8  9  1  0
  9 10  1  0
 10 11  1  0
 11 12  1  0
 12 13  1  0
 13 14  1  0
 15  6  1  0
 15 16  1  0
 16 17  1  0
 17 18  1  0
 18 19  2  0
 18 20  1  0
  8  3  1  0
 14 10  1  0
 20 15  1  0
  1 21  1  0
  1 22  1  0
  1 23  1  0
  4 24  1  0
  5 25  1  0
  7 26  1  0
 10 27  1  0
 11 28  1  0
 11 29  1  0
 12 30  1  0
 12 31  1  0
 13 32  1  0
 13 33  1  0
 14 34  1  0
 14 35  1  0
 15 36  1  6
 16 37  1  0
 16 38  1  0
 17 39  1  0
 20 40  1  0
 20 41  1  0
M  END
>  <_MoleculeID>  (26) 
smi3

>  <_InputIndex>  (26) 
3

>  <_InputSMILES>  (26) 
COc1ccc(cc1OC1CCCC1)[C@H]1CNC(=O)C1

>  <_InputInChIKey>  (26) 
HJORMJIFDVBMOB-GFCCVEGCSA-N

>  <_SMILES>  (26) 
COc1ccc([C@H]2CNC(=O)C2)cc1OC1CCCC1

>  <_InChIKey>  (26) 
HJORMJIFDVBMOB-GFCCVEGCSA-N

$$$$
smi3_conf7
     RDKit          3D

 41 43  0  0  0  0  0  0  0  0999 V2000
   -0.6538   -0.0000    1.2702 C   0  0  0  0  0  0  0  0  0  0  0  0
    0.0000   -0.0000    0.0000 O   0  0  0  0  0  0  0  0  0  0  0  0
    1.3760    0.0000    0.0000 C   0  0  0  0  0  0  0  0  0  0  0  0
    2.0871    0.0000    1.2027 C   0  0  0  0  0  0  0  0  0  0  0  0
    3.4898   -0.0010    1.2110 C   0  0  0  0  0  0  0  0  0  0  0  0
    4.2380    0.0009    0.0236 C   0  0  0  0  0  0  0  0  0  0  0  0
    3.4886    0.0155   -1.1687 C   0  0  0  0  0  0  0  0  0  0  0  0
    2.0874    0.0194   -1.1991 C   0  0  0  0  0  0  0  0  0  0  0  0
    1.4106    0.0350   -2.3970 O   0  0  0  0  0  0  0  0  0  0  0  0
    1.0947    1.3030   -2.9475 C   0  0  0  0  0  0  0  0  0  0  0  0
    1.6795    1.4808   -4.3397 C   0  0  0  0  0  0  0  0  0  0  0  0
    0.8699    2.6391   -4.8969 C   0  0  0  0  0  0  0  0  0  0  0  0
   -0.5410    2.4279   -4.3505 C   0  0  0  0  0  0  0  0  0  0  0  0
   -0.4047    1.4753   -3.1621 C   0  0  0  0  0  0  0  0  0  0  0  0
    5.7240    0.0004    0.0238 C   0  0  2  0  0  0  0  0  0  0  0  0
    6.2769   -0.4283    1.3757 C   0  0  0  0  0  0  0  0  0  0  0  0
    6.4358    0.8081    2.0929 N   0  0  0  0  0  0  0  0  0  0  0  0
    6.4549    1.9175    1.2563 C   0  0  0  0  0  0  0  0  0  0  0  0
    6.6214    3.0840    1.5772 O   0  0  0  0  0  0  0  0  0  0  0  0
    6.2797    1.4161   -0.1585 C   0  0  0  0  0  0  0  0  0  0  0  0
   -1.7340    0.0000    1.1018 H   0  0  0  0  0  0  0  0  0  0  0  0
   -0.3819    0.8975    1.8343 H   0  0  0  0  0  0  0  0  0  0  0  0
   -0.3819   -0.8975    1.8343 H   0  0  0  0  0  0  0  0  0  0  0  0
    1.5574    0.0042    2.1525 H   0  0  0  0  0  0  0  0  0  0  0  0
    3.9786    0.0043    2.1820 H   0  0  0  0  0  0  0  0  0  0  0  0
    4.0274    0.0242   -2.1154 H   0  0  0  0  0  0  0  0  0  0  0  0
    1.4731    2.0790   -2.2722 H   0  0  0  0  0  0  0  0  0  0  0  0
    1.5400    0.5765   -4.9446 H   0  0  0  0  0  0  0  0  0  0  0  0
    2.7528    1.6925   -4.3129 H   0  0  0  0  0  0  0  0  0  0  0  0
    0.8901    2.6735   -5.9901 H   0  0  0  0  0  0  0  0  0  0  0  0
    1.2713    3.5892   -4.5243 H   0  0  0  0  0  0  0  0  0  0  0  0
   -0.9920    3.3808   -4.0543 H   0  0  0  0  0  0  0  0  0  0  0  0
   -1.1886    1.9823   -5.1139 H   0  0  0  0  0  0  0  0  0  0  0  0
   -0.8915    1.8724   -2.2651 H   0  0  0  0  0  0  0  0  0  0  0  0
   -0.8887    0.5166   -3.3842 H   0  0  0  0  0  0  0  0  0  0  0  0
    6.0577   -0.6685   -0.7761 H   0  0  0  0  0  0  0  0  0  0  0  0
    5.6258   -1.1014    1.9411 H   0  0  0  0  0  0  0  0  0  0  0  0
    7.2692   -0.8811    1.2780 H   0  0  0  0  0  0  0  0  0  0  0  0
    6.5732    0.8643    3.0971 H   0  0  0  0  0  0  0  0  0  0  0  0
    5.6146    2.0766   -0.7222 H   0  0  0  0  0  0  0  0  0  0  0  0
    7.2657    1.3919   -0.6347 H   0  0  0  0  0  0  0  0  0  0  0  0
  1  2  1  0
  2  3  1  0
  3  4  2  0
  4  5  1  0
  5  6  2  0
  6  7  1  0
  7  8  2  0
  8  9  1  0
  9 10  1  0
 10 11  1  0
 11 12  1  0
 12 13  1  0
 13 14  1  0
 15  6  1  0
 15 16  1  0
 16 17  1  0
 17 18  1  0
 18 19  2  0
 18 20  1  0
  8  3  1  0
 14 10  1  0
 20 15  1  0
  1 21  1  0
  1 22  1  0
  1 23  1  0
  4 24  1  0
  5 25  1  0
  7 26  1  0
 10 27  1  0
 11 28  1  0
 11 29  1  0
 12 30  1  0
 12 31  1  0
 13 32  1  0
 13 33  1  0
 14 34  1  0
 14 35  1  0
 15 36  1  6
 16 37  1  0
 16 38  1  0
 17 39  1  0
 20 40  1  0
 20 41  1  0
M  END
>  <_MoleculeID>  (27) 
smi3

>  <_InputIndex>  (27) 
3

>  <_InputSMILES>  (27) 
COc1ccc(cc1OC1CCCC1)[C@H]1CNC(=O)C1

>  <_InputInChIKey>  (27) 
HJORMJIFDVBMOB-GFCCVEGCSA-N

>  <_SMILES>  (27) 
COc1ccc([C@H]2CNC(=O)C2)cc1OC1CCCC1

>  <_InChIKey>  (27) 
HJORMJIFDVBMOB-GFCCVEGCSA-N

$$$$
smi3_conf8
     RDKit          3D

 41 43  0  0  0  0  0  0  0  0999 V2000
   -0.6538   -0.0000    1.2702 C   0  0  0  0  0  0  0  0  0  0  0  0
    0.0000   -0.0000    0.0000 O   0  0  0  0  0  0  0  0  0  0  0  0
    1.3760    0.0000    0.0000 C   0  0  0  0  0  0  0  0  0  0  0  0
    2.0871    0.0000    1.2027 C   0  0  0  0  0  0  0  0  0  0  0  0
    3.4898   -0.0010    1.2110 C   0  0  0  0  0  0  0  0  0  0  0  0
    4.2380    0.0009    0.0236 C   0  0  0  0  0  0  0  0  0  0  0  0
    3.4886    0.0155   -1.1687 C   0  0  0  0  0  0  0  0  0  0  0  0
    2.0874    0.0194   -1.1991 C   0  0  0  0  0  0  0  0  0  0  0  0
    1.4106    0.0350   -2.3970 O   0  0  0  0  0  0  0  0  0  0  0  0
    1.0947    1.3030   -2.9475 C   0  0  0  0  0  0  0  0  0  0  0  0
   -0.2343    1.8508   -2.4343 C   0  0  0  0  0  0  0  0  0  0  0  0
   -0.6972    2.8176   -3.5189 C   0  0  0  0  0  0  0  0  0  0  0  0
    0.0239    2.3961   -4.7996 C   0  0  0  0  0  0  0  0  0  0  0  0
    0.8080    1.1430   -4.4381 C   0  0  0  0  0  0  0  0  0  0  0  0
    5.7240    0.0004    0.0238 C   0  0  1  0  0  0  0  0  0  0  0  0
    6.2777    1.4066   -0.1583 C   0  0  0  0  0  0  0  0  0  0  0  0
    6.4363    1.8933    1.1857 N   0  0  0  0  0  0  0  0  0  0  0  0
    6.4545    0.8733    2.1293 C   0  0  0  0  0  0  0  0  0  0  0  0
    6.6204    0.9823    3.3343 O   0  0  0  0  0  0  0  0  0  0  0  0
    6.2788   -0.4302    1.3850 C   0  0  0  0  0  0  0  0  0  0  0  0
   -1.7340    0.0000    1.1018 H   0  0  0  0  0  0  0  0  0  0  0  0
   -0.3819    0.8975    1.8343 H   0  0  0  0  0  0  0  0  0  0  0  0
   -0.3819   -0.8975    1.8343 H   0  0  0  0  0  0  0  0  0  0  0  0
    1.5574    0.0042    2.1525 H   0  0  0  0  0  0  0  0  0  0  0  0
    3.9786    0.0043    2.1820 H   0  0  0  0  0  0  0  0  0  0  0  0
    4.0274    0.0242   -2.1154 H   0  0  0  0  0  0  0  0  0  0  0  0
    1.9137    2.0245   -2.8225 H   0  0  0  0  0  0  0  0  0  0  0  0
   -0.1374    2.3445   -1.4625 H   0  0  0  0  0  0  0  0  0  0  0  0
   -0.9618    1.0391   -2.3075 H   0  0  0  0  0  0  0  0  0  0  0  0
   -1.7851    2.7843   -3.6371 H   0  0  0  0  0  0  0  0  0  0  0  0
   -0.4263    3.8473   -3.2598 H   0  0  0  0  0  0  0  0  0  0  0  0
   -0.6743    2.2120   -5.6221 H   0  0  0  0  0  0  0  0  0  0  0  0
    0.7068    3.1921   -5.1184 H   0  0  0  0  0  0  0  0  0  0  0  0
    0.2071    0.2436   -4.6235 H   0  0  0  0  0  0  0  0  0  0  0  0
    1.7259    1.0401   -5.0255 H   0  0  0  0  0  0  0  0  0  0  0  0
    6.0577   -0.6685   -0.7761 H   0  0  0  0  0  0  0  0  0  0  0  0
    5.6272    2.0827   -0.7208 H   0  0  0  0  0  0  0  0  0  0  0  0
    7.2702    1.3902   -0.6208 H   0  0  0  0  0  0  0  0  0  0  0  0
    6.5741    2.8715    1.4191 H   0  0  0  0  0  0  0  0  0  0  0  0
    5.6132   -1.1017    1.9349 H   0  0  0  0  0  0  0  0  0  0  0  0
    7.2647   -0.8951    1.2773 H   0  0  0  0  0  0  0  0  0  0  0  0
  1  2  1  0
  2  3  1  0
  3  4  2  0
  4  5  1  0
  5  6  2  0
  6  7  1  0
  7  8  2  0
  8  9  1  0
  9 10  1  0
 10 11  1  0
 11 12  1  0
 12 13  1  0
 13 14  1  0
 15  6  1  0
 15 16  1  0
 16 17  1  0
 17 18  1  0
 18 19  2  0
 18 20  1  0
  8  3  1  0
 14 10  1  0
 20 15  1  0
  1 21  1  0
  1 22  1  0
  1 23  1  0
  4 24  1  0
  5 25  1  0
  7 26  1  0
 10 27  1  0
 11 28  1  0
 11 29  1  0
 12 30  1  0
 12 31  1  0
 13 32  1  0
 13 33  1  0
 14 34  1  0
 14 35  1  0
 15 36  1  6
 16 37  1  0
 16 38  1  0
 17 39  1  0
 20 40  1  0
 20 41  1  0
M  END
>  <_MoleculeID>  (28) 
smi3

>  <_InputIndex>  (28) 
3

>  <_InputSMILES>  (28) 
COc1ccc(cc1OC1CCCC1)[C@H]1CNC(=O)C1

>  <_InputInChIKey>  (28) 
HJORMJIFDVBMOB-GFCCVEGCSA-N

>  <_SMILES>  (28) 
COc1ccc([C@H]2CNC(=O)C2)cc1OC1CCCC1

>  <_InChIKey>  (28) 
HJORMJIFDVBMOB-GFCCVEGCSA-N

$$$$
smi3_conf9
     RDKit          3D

 41 43  0  0  0  0  0  0  0  0999 V2000
   -0.6538   -0.0000    1.2702 C   0  0  0  0  0  0  0  0  0  0  0  0
    0.0000   -0.0000    0.0000 O   0  0  0  0  0  0  0  0  0  0  0  0
    1.3760    0.0000    0.0000 C   0  0  0  0  0  0  0  0  0  0  0  0
    2.0871    0.0000    1.2027 C   0  0  0  0  0  0  0  0  0  0  0  0
    3.4898   -0.0010    1.2110 C   0  0  0  0  0  0  0  0  0  0  0  0
    4.2380    0.0009    0.0236 C   0  0  0  0  0  0  0  0  0  0  0  0
    3.4886    0.0155   -1.1687 C   0  0  0  0  0  0  0  0  0  0  0  0
    2.0874    0.0194   -1.1991 C   0  0  0  0  0  0  0  0  0  0  0  0
    1.4106    0.0350   -2.3970 O   0  0  0  0  0  0  0  0  0  0  0  0
    1.0882   -1.2184   -2.9766 C   0  0  0  0  0  0  0  0  0  0  0  0
    1.6722   -1.3671   -4.3725 C   0  0  0  0  0  0  0  0  0  0  0  0
    0.8566   -2.5080   -4.9562 C   0  0  0  0  0  0  0  0  0  0  0  0
   -0.5532   -2.3022   -4.4050 C   0  0  0  0  0  0  0  0  0  0  0  0
   -0.4120   -1.3780   -3.1950 C   0  0  0  0  0  0  0  0  0  0  0  0
    5.7240    0.0004    0.0238 C   0  0  2  0  0  0  0  0  0  0  0  0
    6.2767   -1.4055   -0.1634 C   0  0  0  0  0  0  0  0  0  0  0  0
    6.4351   -1.8972    1.1789 N   0  0  0  0  0  0  0  0  0  0  0  0
    6.4539   -0.8807    2.1261 C   0  0  0  0  0  0  0  0  0  0  0  0
    6.6198   -0.9941    3.3307 O   0  0  0  0  0  0  0  0  0  0  0  0
    6.2791    0.4256    1.3866 C   0  0  0  0  0  0  0  0  0  0  0  0
   -1.7340    0.0000    1.1018 H   0  0  0  0  0  0  0  0  0  0  0  0
   -0.3819    0.8975    1.8343 H   0  0  0  0  0  0  0  0  0  0  0  0
   -0.3819   -0.8975    1.8343 H   0  0  0  0  0  0  0  0  0  0  0  0
    1.5574    0.0042    2.1525 H   0  0  0  0  0  0  0  0  0  0  0  0
    3.9786    0.0043    2.1820 H   0  0  0  0  0  0  0  0  0  0  0  0
    4.0274    0.0242   -2.1154 H   0  0  0  0  0  0  0  0  0  0  0  0
    1.4625   -2.0117   -2.3194 H   0  0  0  0  0  0  0  0  0  0  0  0
    1.5373   -0.4484   -4.9564 H   0  0  0  0  0  0  0  0  0  0  0  0
    2.7444   -1.5849   -4.3506 H   0  0  0  0  0  0  0  0  0  0  0  0
    0.8768   -2.5174   -6.0499 H   0  0  0  0  0  0  0  0  0  0  0  0
    1.2532   -3.4686   -4.6057 H   0  0  0  0  0  0  0  0  0  0  0  0
   -1.0091   -3.2593   -4.1308 H   0  0  0  0  0  0  0  0  0  0  0  0
   -1.1984   -1.8358   -5.1579 H   0  0  0  0  0  0  0  0  0  0  0  0
   -0.9009   -1.7932   -2.3074 H   0  0  0  0  0  0  0  0  0  0  0  0
   -0.8911   -0.4120   -3.3949 H   0  0  0  0  0  0  0  0  0  0  0  0
    6.0582    0.6719   -0.7737 H   0  0  0  0  0  0  0  0  0  0  0  0
    5.6258   -2.0791   -0.7283 H   0  0  0  0  0  0  0  0  0  0  0  0
    7.2692   -1.3881   -0.6259 H   0  0  0  0  0  0  0  0  0  0  0  0
    6.5722   -2.8764    1.4087 H   0  0  0  0  0  0  0  0  0  0  0  0
    5.6139    1.0956    1.9388 H   0  0  0  0  0  0  0  0  0  0  0  0
    7.2653    0.8903    1.2805 H   0  0  0  0  0  0  0  0  0  0  0  0
  1  2  1  0
  2  3  1  0
  3  4  2  0
  4  5  1  0
  5  6  2  0
  6  7  1  0
  7  8  2  0
  8  9  1  0
  9 10  1  0
 10 11  1  0
 11 12  1  0
 12 13  1  0
 13 14  1  0
 15  6  1  0
 15 16  1  0
 16 17  1  0
 17 18  1  0
 18 19  2  0
 18 20  1  0
  8  3  1  0
 14 10  1  0
 20 15  1  0
  1 21  1  0
  1 22  1  0
  1 23  1  0
  4 24  1  0
  5 25  1  0
  7 26  1  0
 10 27  1  0
 11 28  1  0
 11 29  1  0
 12 30  1  0
 12 31  1  0
 13 32  1  0
 13 33  1  0
 14 34  1  0
 14 35  1  0
 15 36  1  6
 16 37  1  0
 16 38  1  0
 17 39  1  0
 20 40  1  0
 20 41  1  0
M  END
>  <_MoleculeID>  (29) 
smi3

>  <_InputIndex>  (29) 
3

>  <_InputSMILES>  (29) 
COc1ccc(cc1OC1CCCC1)[C@H]1CNC(=O)C1

>  <_InputInChIKey>  (29) 
HJORMJIFDVBMOB-GFCCVEGCSA-N

>  <_SMILES>  (29) 
COc1ccc([C@H]2CNC(=O)C2)cc1OC1CCCC1

>  <_InChIKey>  (29) 
HJORMJIFDVBMOB-GFCCVEGCSA-N

$$$$
smi4_conf0
     RDKit          3D

 39 41  0  0  0  0  0  0  0  0999 V2000
   -0.6538   -0.0000    1.2702 C   0  0  0  0  0  0  0  0  0  0  0  0
    0.0000   -0.0000    0.0000 O   0  0  0  0  0  0  0  0  0  0  0  0
    1.3760    0.0000    0.0000 C   0  0  0  0  0  0  0  0  0  0  0  0
    2.0831    0.0000    1.1993 C   0  0  0  0  0  0  0  0  0  0  0  0
    3.4756   -0.0011    1.1885 C   0  0  0  0  0  0  0  0  0  0  0  0
    4.1878    0.0004   -0.0274 C   0  0  0  0  0  0  0  0  0  0  0  0
    5.5960   -0.0103   -0.0987 C   0  0  0  0  0  0  0  0  0  0  0  0
    6.3584   -0.0199    1.0695 N   0  0  0  0  0  0  0  0  0  0  0  0
    6.7725   -1.1928    1.7141 C   0  0  0  0  0  0  0  0  0  0  0  0
    6.5227   -2.3364    1.3412 O   0  0  0  0  0  0  0  0  0  0  0  0
    7.5328   -0.8636    2.8462 N   0  0  0  0  0  0  0  0  0  0  0  0
    8.2299   -1.7562    3.6606 C   0  0  0  0  0  0  0  0  0  0  0  0
    8.9617   -1.3299    4.7707 C   0  0  0  0  0  0  0  0  0  0  0  0
    9.6372   -2.2680    5.5612 C   0  0  0  0  0  0  0  0  0  0  0  0
    9.5745   -3.6119    5.1975 C   0  0  0  0  0  0  0  0  0  0  0  0
    8.8414   -3.9520    4.0749 C   0  0  0  0  0  0  0  0  0  0  0  0
    8.1784   -3.0623    3.3031 N   0  0  0  0  0  0  0  0  0  0  0  0
    8.7393   -5.3675    3.6345 C   0  0  0  0  0  0  0  0  0  0  0  0
    8.1796   -6.1838    4.5706 F   0  0  0  0  0  0  0  0  0  0  0  0
    9.9455   -5.9272    3.3380 F   0  0  0  0  0  0  0  0  0  0  0  0
    7.9777   -5.5060    2.5145 F   0  0  0  0  0  0  0  0  0  0  0  0
    6.2448    0.0227   -1.3293 C   0  0  0  0  0  0  0  0  0  0  0  0
    5.4540    0.0268   -2.4584 C   0  0  0  0  0  0  0  0  0  0  0  0
    4.1024    0.0141   -2.4378 N   0  0  0  0  0  0  0  0  0  0  0  0
    3.4771    0.0057   -1.2455 C   0  0  0  0  0  0  0  0  0  0  0  0
    2.0826    0.0050   -1.2073 C   0  0  0  0  0  0  0  0  0  0  0  0
   -1.7340    0.0000    1.1018 H   0  0  0  0  0  0  0  0  0  0  0  0
   -0.3819    0.8975    1.8343 H   0  0  0  0  0  0  0  0  0  0  0  0
   -0.3819   -0.8975    1.8343 H   0  0  0  0  0  0  0  0  0  0  0  0
    1.5573   -0.0020    2.1508 H   0  0  0  0  0  0  0  0  0  0  0  0
    3.9996   -0.0053    2.1417 H   0  0  0  0  0  0  0  0  0  0  0  0
    6.6142    0.8719    1.4804 H   0  0  0  0  0  0  0  0  0  0  0  0
    7.6640    0.1248    3.0422 H   0  0  0  0  0  0  0  0  0  0  0  0
    9.0064   -0.2729    5.0195 H   0  0  0  0  0  0  0  0  0  0  0  0
   10.2051   -1.9533    6.4300 H   0  0  0  0  0  0  0  0  0  0  0  0
   10.0846   -4.3794    5.7694 H   0  0  0  0  0  0  0  0  0  0  0  0
    7.3252    0.0500   -1.4118 H   0  0  0  0  0  0  0  0  0  0  0  0
    5.8982    0.0459   -3.4482 H   0  0  0  0  0  0  0  0  0  0  0  0
    1.5522    0.0118   -2.1572 H   0  0  0  0  0  0  0  0  0  0  0  0
  1  2  1  0
  2  3  1  0
  3  4  2  0
  4  5  1  0
  5  6  2  0
  6  7  1  0
  7  8  1  0
  8  9  1  0
  9 10  2  0
  9 11  1  0
 11 12  1  0
 12 13  2  0
 13 14  1  0
 14 15  2  0
 15 16  1  0
 16 17  2  0
 16 18  1  0
 18 19  1  0
 18 20  1  0
 18 21  1  0
  7 22  2  0
 22 23  1  0
 23 24  2  0
 24 25  1  0
 25 26  2  0
 26  3  1  0
 25  6  1  0
 17 12  1  0
  1 27  1  0
  1 28  1  0
  1 29  1  0
  4 30  1  0
  5 31  1  0
  8 32  1  0
 11 33  1  0
 13 34  1  0
 14 35  1  0
 15 36  1  0
 22 37  1  0
 23 38  1  0
 26 39  1  0
M  END
>  <_MoleculeID>  (30) 
smi4

>  <_InputIndex>  (30) 
4

>  <_InputSMILES>  (30) 
COc1ccc2c(NC(=O)Nc3cccc(n3)C(F)(F)F)ccnc2c1

>  <_InputInChIKey>  (30) 
VQPBIJGXSXEOCU-UHFFFAOYSA-N

>  <_SMILES>  (30) 
COc1ccc2c(NC(=O)Nc3cccc(C(F)(F)F)n3)ccnc2c1

>  <_InChIKey>  (30) 
VQPBIJGXSXEOCU-UHFFFAOYSA-N

$$$$
smi4_conf1
     RDKit          3D

 39 41  0  0  0  0  0  0  0  0999 V2000
   -0.6538   -0.0000    1.2702 C   0  0  0  0  0  0  0  0  0  0  0  0
    0.0000   -0.0000    0.0000 O   0  0  0  0  0  0  0  0  0  0  0  0
    1.3760    0.0000   -0.0000 C   0  0  0  0  0  0  0  0  0  0  0  0
    2.0831    1.1993   -0.0000 C   0  0  0  0  0  0  0  0  0  0  0  0
    3.4756    1.1885    0.0011 C   0  0  0  0  0  0  0  0  0  0  0  0
    4.1878   -0.0274   -0.0004 C   0  0  0  0  0  0  0  0  0  0  0  0
    5.5960   -0.0987    0.0103 C   0  0  0  0  0  0  0  0  0  0  0  0
    6.3584    1.0695    0.0199 N   0  0  0  0  0  0  0  0  0  0  0  0
    6.7906    1.7216   -1.1422 C   0  0  0  0  0  0  0  0  0  0  0  0
    6.5585    1.3562   -2.2919 O   0  0  0  0  0  0  0  0  0  0  0  0
    7.5182    2.8694   -0.7941 N   0  0  0  0  0  0  0  0  0  0  0  0
    7.9898    3.8457   -1.6719 C   0  0  0  0  0  0  0  0  0  0  0  0
    8.7081    4.9574   -1.2271 C   0  0  0  0  0  0  0  0  0  0  0  0
    9.1667    5.9048   -2.1509 C   0  0  0  0  0  0  0  0  0  0  0  0
    8.8693    5.7166   -3.4993 C   0  0  0  0  0  0  0  0  0  0  0  0
    8.1394    4.5977   -3.8580 C   0  0  0  0  0  0  0  0  0  0  0  0
    7.6932    3.6699   -2.9823 N   0  0  0  0  0  0  0  0  0  0  0  0
    7.7882    4.3434   -5.2793 C   0  0  0  0  0  0  0  0  0  0  0  0
    8.7047    4.8382   -6.1574 F   0  0  0  0  0  0  0  0  0  0  0  0
    6.5978    4.8950   -5.6464 F   0  0  0  0  0  0  0  0  0  0  0  0
    7.6853    3.0143   -5.5557 F   0  0  0  0  0  0  0  0  0  0  0  0
    6.2448   -1.3293   -0.0227 C   0  0  0  0  0  0  0  0  0  0  0  0
    5.4540   -2.4584   -0.0268 C   0  0  0  0  0  0  0  0  0  0  0  0
    4.1024   -2.4378   -0.0141 N   0  0  0  0  0  0  0  0  0  0  0  0
    3.4771   -1.2455   -0.0057 C   0  0  0  0  0  0  0  0  0  0  0  0
    2.0826   -1.2073   -0.0050 C   0  0  0  0  0  0  0  0  0  0  0  0
   -1.7340    0.0000    1.1018 H   0  0  0  0  0  0  0  0  0  0  0  0
   -0.3819    0.8975    1.8343 H   0  0  0  0  0  0  0  0  0  0  0  0
   -0.3819   -0.8975    1.8343 H   0  0  0  0  0  0  0  0  0  0  0  0
    1.5573    2.1508    0.0020 H   0  0  0  0  0  0  0  0  0  0  0  0
    3.9996    2.1417    0.0053 H   0  0  0  0  0  0  0  0  0  0  0  0
    6.6248    1.4586    0.9184 H   0  0  0  0  0  0  0  0  0  0  0  0
    7.6374    3.0569    0.1975 H   0  0  0  0  0  0  0  0  0  0  0  0
    8.9097    5.0862   -0.1671 H   0  0  0  0  0  0  0  0  0  0  0  0
    9.7310    6.7707   -1.8218 H   0  0  0  0  0  0  0  0  0  0  0  0
    9.1932    6.4227   -4.2562 H   0  0  0  0  0  0  0  0  0  0  0  0
    7.3252   -1.4118   -0.0500 H   0  0  0  0  0  0  0  0  0  0  0  0
    5.8982   -3.4482   -0.0459 H   0  0  0  0  0  0  0  0  0  0  0  0
    1.5522   -2.1572   -0.0118 H   0  0  0  0  0  0  0  0  0  0  0  0
  1  2  1  0
  2  3  1  0
  3  4  2  0
  4  5  1  0
  5  6  2  0
  6  7  1  0
  7  8  1  0
  8  9  1  0
  9 10  2  0
  9 11  1  0
 11 12  1  0
 12 13  2  0
 13 14  1  0
 14 15  2  0
 15 16  1  0
 16 17  2  0
 16 18  1  0
 18 19  1  0
 18 20  1  0
 18 21  1  0
  7 22  2  0
 22 23  1  0
 23 24  2  0
 24 25  1  0
 25 26  2  0
 26  3  1  0
 25  6  1  0
 17 12  1  0
  1 27  1  0
  1 28  1  0
  1 29  1  0
  4 30  1  0
  5 31  1  0
  8 32  1  0
 11 33  1  0
 13 34  1  0
 14 35  1  0
 15 36  1  0
 22 37  1  0
 23 38  1  0
 26 39  1  0
M  END
>  <_MoleculeID>  (31) 
smi4

>  <_InputIndex>  (31) 
4

>  <_InputSMILES>  (31) 
COc1ccc2c(NC(=O)Nc3cccc(n3)C(F)(F)F)ccnc2c1

>  <_InputInChIKey>  (31) 
VQPBIJGXSXEOCU-UHFFFAOYSA-N

>  <_SMILES>  (31) 
COc1ccc2c(NC(=O)Nc3cccc(C(F)(F)F)n3)ccnc2c1

>  <_InChIKey>  (31) 
VQPBIJGXSXEOCU-UHFFFAOYSA-N

$$$$
smi4_conf2
     RDKit          3D

 39 41  0  0  0  0  0  0  0  0999 V2000
   -0.6538   -0.0000    1.2702 C   0  0  0  0  0  0  0  0  0  0  0  0
    0.0000   -0.0000    0.0000 O   0  0  0  0  0  0  0  0  0  0  0  0
    1.3760    0.0000    0.0000 C   0  0  0  0  0  0  0  0  0  0  0  0
    2.0831   -0.0000    1.1993 C   0  0  0  0  0  0  0  0  0  0  0  0
    3.4756   -0.0011    1.1885 C   0  0  0  0  0  0  0  0  0  0  0  0
    4.1878    0.0004   -0.0274 C   0  0  0  0  0  0  0  0  0  0  0  0
    5.5960   -0.0103   -0.0987 C   0  0  0  0  0  0  0  0  0  0  0  0
    6.3584   -0.0199    1.0695 N   0  0  0  0  0  0  0  0  0  0  0  0
    6.7906    1.1422    1.7216 C   0  0  0  0  0  0  0  0  0  0  0  0
    6.5585    2.2919    1.3562 O   0  0  0  0  0  0  0  0  0  0  0  0
    7.5182    0.7941    2.8694 N   0  0  0  0  0  0  0  0  0  0  0  0
    7.9898    1.6719    3.8457 C   0  0  0  0  0  0  0  0  0  0  0  0
    7.7726    3.0492    3.7711 C   0  0  0  0  0  0  0  0  0  0  0  0
    8.2601    3.8865    4.7823 C   0  0  0  0  0  0  0  0  0  0  0  0
    8.9743    3.3135    5.8330 C   0  0  0  0  0  0  0  0  0  0  0  0
    9.1603    1.9429    5.8264 C   0  0  0  0  0  0  0  0  0  0  0  0
    8.6930    1.1181    4.8631 N   0  0  0  0  0  0  0  0  0  0  0  0
    9.9157    1.2737    6.9172 C   0  0  0  0  0  0  0  0  0  0  0  0
    9.1275    0.8838    7.9576 F   0  0  0  0  0  0  0  0  0  0  0  0
   10.8799    2.0635    7.4671 F   0  0  0  0  0  0  0  0  0  0  0  0
   10.5529    0.1492    6.4892 F   0  0  0  0  0  0  0  0  0  0  0  0
    6.2448    0.0227   -1.3293 C   0  0  0  0  0  0  0  0  0  0  0  0
    5.4540    0.0268   -2.4584 C   0  0  0  0  0  0  0  0  0  0  0  0
    4.1024    0.0141   -2.4378 N   0  0  0  0  0  0  0  0  0  0  0  0
    3.4771    0.0057   -1.2455 C   0  0  0  0  0  0  0  0  0  0  0  0
    2.0826    0.0050   -1.2073 C   0  0  0  0  0  0  0  0  0  0  0  0
   -1.7340    0.0000    1.1018 H   0  0  0  0  0  0  0  0  0  0  0  0
   -0.3819    0.8975    1.8343 H   0  0  0  0  0  0  0  0  0  0  0  0
   -0.3819   -0.8975    1.8343 H   0  0  0  0  0  0  0  0  0  0  0  0
    1.5573   -0.0020    2.1508 H   0  0  0  0  0  0  0  0  0  0  0  0
    3.9996   -0.0053    2.1417 H   0  0  0  0  0  0  0  0  0  0  0  0
    6.6248   -0.9184    1.4586 H   0  0  0  0  0  0  0  0  0  0  0  0
    7.6374   -0.1975    3.0569 H   0  0  0  0  0  0  0  0  0  0  0  0
    7.2270    3.4690    2.9302 H   0  0  0  0  0  0  0  0  0  0  0  0
    8.0945    4.9576    4.7417 H   0  0  0  0  0  0  0  0  0  0  0  0
    9.3805    3.9157    6.6384 H   0  0  0  0  0  0  0  0  0  0  0  0
    7.3252    0.0500   -1.4118 H   0  0  0  0  0  0  0  0  0  0  0  0
    5.8982    0.0459   -3.4482 H   0  0  0  0  0  0  0  0  0  0  0  0
    1.5522    0.0118   -2.1572 H   0  0  0  0  0  0  0  0  0  0  0  0
  1  2  1  0
  2  3  1  0
  3  4  2  0
  4  5  1  0
  5  6  2  0
  6  7  1  0
  7  8  1  0
  8  9  1  0
  9 10  2  0
  9 11  1  0
 11 12  1  0
 12 13  2  0
 13 14  1  0
 14 15  2  0
 15 16  1  0
 16 17  2  0
 16 18  1  0
 18 19  1  0
 18 20  1  0
 18 21  1  0
  7 22  2  0
 22 23  1  0
 23 24  2  0
 24 25  1  0
 25 26  2  0
 26  3  1  0
 25  6  1  0
 17 12  1  0
  1 27  1  0
  1 28  1  0
  1 29  1  0
  4 30  1  0
  5 31  1  0
  8 32  1  0
 11 33  1  0
 13 34  1  0
 14 35  1  0
 15 36  1  0
 22 37  1  0
 23 38  1  0
 26 39  1  0
M  END
>  <_MoleculeID>  (32) 
smi4

>  <_InputIndex>  (32) 
4

>  <_InputSMILES>  (32) 
COc1ccc2c(NC(=O)Nc3cccc(n3)C(F)(F)F)ccnc2c1

>  <_InputInChIKey>  (32) 
VQPBIJGXSXEOCU-UHFFFAOYSA-N

>  <_SMILES>  (32) 
COc1ccc2c(NC(=O)Nc3cccc(C(F)(F)F)n3)ccnc2c1

>  <_InChIKey>  (32) 
VQPBIJGXSXEOCU-UHFFFAOYSA-N

$$$$
smi4_conf3
     RDKit          3D

 39 41  0  0  0  0  0  0  0  0999 V2000
   -0.6538   -0.0000    1.2702 C   0  0  0  0  0  0  0  0  0  0  0  0
    0.0000   -0.0000    0.0000 O   0  0  0  0  0  0  0  0  0  0  0  0
    1.3760   -0.0000    0.0000 C   0  0  0  0  0  0  0  0  0  0  0  0
    2.0831    1.1993   -0.0000 C   0  0  0  0  0  0  0  0  0  0  0  0
    3.4756    1.1885    0.0011 C   0  0  0  0  0  0  0  0  0  0  0  0
    4.1878   -0.0274   -0.0004 C   0  0  0  0  0  0  0  0  0  0  0  0
    5.5960   -0.0987    0.0103 C   0  0  0  0  0  0  0  0  0  0  0  0
    6.3584    1.0695    0.0199 N   0  0  0  0  0  0  0  0  0  0  0  0
    6.7725    1.7141    1.1928 C   0  0  0  0  0  0  0  0  0  0  0  0
    6.5227    1.3412    2.3364 O   0  0  0  0  0  0  0  0  0  0  0  0
    7.5328    2.8462    0.8636 N   0  0  0  0  0  0  0  0  0  0  0  0
    8.2299    3.6606    1.7562 C   0  0  0  0  0  0  0  0  0  0  0  0
    8.2386    3.4158    3.1309 C   0  0  0  0  0  0  0  0  0  0  0  0
    8.9616    4.2593    3.9835 C   0  0  0  0  0  0  0  0  0  0  0  0
    9.6401    5.3426    3.4282 C   0  0  0  0  0  0  0  0  0  0  0  0
    9.5696    5.5262    2.0591 C   0  0  0  0  0  0  0  0  0  0  0  0
    8.8822    4.7202    1.2197 N   0  0  0  0  0  0  0  0  0  0  0  0
   10.2689    6.6644    1.4084 C   0  0  0  0  0  0  0  0  0  0  0  0
   11.3996    7.0479    2.0644 F   0  0  0  0  0  0  0  0  0  0  0  0
    9.5020    7.7868    1.3185 F   0  0  0  0  0  0  0  0  0  0  0  0
   10.6557    6.3732    0.1359 F   0  0  0  0  0  0  0  0  0  0  0  0
    6.2448   -1.3293   -0.0227 C   0  0  0  0  0  0  0  0  0  0  0  0
    5.4540   -2.4584   -0.0268 C   0  0  0  0  0  0  0  0  0  0  0  0
    4.1024   -2.4378   -0.0141 N   0  0  0  0  0  0  0  0  0  0  0  0
    3.4771   -1.2455   -0.0057 C   0  0  0  0  0  0  0  0  0  0  0  0
    2.0826   -1.2073   -0.0050 C   0  0  0  0  0  0  0  0  0  0  0  0
   -1.7340    0.0000    1.1018 H   0  0  0  0  0  0  0  0  0  0  0  0
   -0.3819    0.8975    1.8343 H   0  0  0  0  0  0  0  0  0  0  0  0
   -0.3819   -0.8975    1.8343 H   0  0  0  0  0  0  0  0  0  0  0  0
    1.5573    2.1508    0.0020 H   0  0  0  0  0  0  0  0  0  0  0  0
    3.9996    2.1417    0.0053 H   0  0  0  0  0  0  0  0  0  0  0  0
    6.6142    1.4804   -0.8719 H   0  0  0  0  0  0  0  0  0  0  0  0
    7.6640    3.0422   -0.1248 H   0  0  0  0  0  0  0  0  0  0  0  0
    7.6855    2.5730    3.5368 H   0  0  0  0  0  0  0  0  0  0  0  0
    8.9829    4.0790    5.0528 H   0  0  0  0  0  0  0  0  0  0  0  0
   10.2093    6.0317    4.0428 H   0  0  0  0  0  0  0  0  0  0  0  0
    7.3252   -1.4118   -0.0500 H   0  0  0  0  0  0  0  0  0  0  0  0
    5.8982   -3.4482   -0.0459 H   0  0  0  0  0  0  0  0  0  0  0  0
    1.5522   -2.1572   -0.0118 H   0  0  0  0  0  0  0  0  0  0  0  0
  1  2  1  0
  2  3  1  0
  3  4  2  0
  4  5  1  0
  5  6  2  0
  6  7  1  0
  7  8  1  0
  8  9  1  0
  9 10  2  0
  9 11  1  0
 11 12  1  0
 12 13  2  0
 13 14  1  0
 14 15  2  0
 15 16  1  0
 16 17  2  0
 16 18  1  0
 18 19  1  0
 18 20  1  0
 18 21  1  0
  7 22  2  0
 22 23  1  0
 23 24  2  0
 24 25  1  0
 25 26  2  0
 26  3  1  0
 25  6  1  0
 17 12  1  0
  1 27  1  0
  1 28  1  0
  1 29  1  0
  4 30  1  0
  5 31  1  0
  8 32  1  0
 11 33  1  0
 13 34  1  0
 14 35  1  0
 15 36  1  0
 22 37  1  0
 23 38  1  0
 26 39  1  0
M  END
>  <_MoleculeID>  (33) 
smi4

>  <_InputIndex>  (33) 
4

>  <_InputSMILES>  (33) 
COc1ccc2c(NC(=O)Nc3cccc(n3)C(F)(F)F)ccnc2c1

>  <_InputInChIKey>  (33) 
VQPBIJGXSXEOCU-UHFFFAOYSA-N

>  <_SMILES>  (33) 
COc1ccc2c(NC(=O)Nc3cccc(C(F)(F)F)n3)ccnc2c1

>  <_InChIKey>  (33) 
VQPBIJGXSXEOCU-UHFFFAOYSA-N

$$$$
smi4_conf4
     RDKit          3D

 39 41  0  0  0  0  0  0  0  0999 V2000
   -0.6538   -0.0000    1.2702 C   0  0  0  0  0  0  0  0  0  0  0  0
    0.0000   -0.0000    0.0000 O   0  0  0  0  0  0  0  0  0  0  0  0
    1.3760    0.0000    0.0000 C   0  0  0  0  0  0  0  0  0  0  0  0
    2.0831    1.1993   -0.0000 C   0  0  0  0  0  0  0  0  0  0  0  0
    3.4756    1.1885    0.0011 C   0  0  0  0  0  0  0  0  0  0  0  0
    4.1878   -0.0274   -0.0004 C   0  0  0  0  0  0  0  0  0  0  0  0
    5.5960   -0.0987    0.0103 C   0  0  0  0  0  0  0  0  0  0  0  0
    6.3584    1.0695    0.0199 N   0  0  0  0  0  0  0  0  0  0  0  0
    7.7592    1.0798    0.0308 C   0  0  0  0  0  0  0  0  0  0  0  0
    8.4785    0.0838    0.0332 O   0  0  0  0  0  0  0  0  0  0  0  0
    8.2197    2.4049    0.0223 N   0  0  0  0  0  0  0  0  0  0  0  0
    9.5459    2.8172   -0.1089 C   0  0  0  0  0  0  0  0  0  0  0  0
    9.9062    4.1662   -0.1058 C   0  0  0  0  0  0  0  0  0  0  0  0
   11.2534    4.5271   -0.2323 C   0  0  0  0  0  0  0  0  0  0  0  0
   12.2012    3.5163   -0.3808 C   0  0  0  0  0  0  0  0  0  0  0  0
   11.7623    2.2045   -0.3898 C   0  0  0  0  0  0  0  0  0  0  0  0
   10.4680    1.8364   -0.2634 N   0  0  0  0  0  0  0  0  0  0  0  0
   12.7241    1.0829   -0.5478 C   0  0  0  0  0  0  0  0  0  0  0  0
   13.9597    1.3579   -0.0444 F   0  0  0  0  0  0  0  0  0  0  0  0
   12.9308    0.7304   -1.8475 F   0  0  0  0  0  0  0  0  0  0  0  0
   12.3063   -0.0482    0.0842 F   0  0  0  0  0  0  0  0  0  0  0  0
    6.2448   -1.3293   -0.0227 C   0  0  0  0  0  0  0  0  0  0  0  0
    5.4540   -2.4584   -0.0268 C   0  0  0  0  0  0  0  0  0  0  0  0
    4.1024   -2.4378   -0.0141 N   0  0  0  0  0  0  0  0  0  0  0  0
    3.4771   -1.2455   -0.0057 C   0  0  0  0  0  0  0  0  0  0  0  0
    2.0826   -1.2073   -0.0050 C   0  0  0  0  0  0  0  0  0  0  0  0
   -1.7340    0.0000    1.1018 H   0  0  0  0  0  0  0  0  0  0  0  0
   -0.3819    0.8975    1.8343 H   0  0  0  0  0  0  0  0  0  0  0  0
   -0.3819   -0.8975    1.8343 H   0  0  0  0  0  0  0  0  0  0  0  0
    1.5573    2.1508    0.0020 H   0  0  0  0  0  0  0  0  0  0  0  0
    3.9996    2.1417    0.0053 H   0  0  0  0  0  0  0  0  0  0  0  0
    5.8697    1.9587    0.0336 H   0  0  0  0  0  0  0  0  0  0  0  0
    7.5158    3.1377    0.0212 H   0  0  0  0  0  0  0  0  0  0  0  0
    9.1425    4.9329   -0.0058 H   0  0  0  0  0  0  0  0  0  0  0  0
   11.5498    5.5704   -0.2258 H   0  0  0  0  0  0  0  0  0  0  0  0
   13.2570    3.7394   -0.4902 H   0  0  0  0  0  0  0  0  0  0  0  0
    7.3252   -1.4118   -0.0500 H   0  0  0  0  0  0  0  0  0  0  0  0
    5.8982   -3.4482   -0.0459 H   0  0  0  0  0  0  0  0  0  0  0  0
    1.5522   -2.1572   -0.0118 H   0  0  0  0  0  0  0  0  0  0  0  0
  1  2  1  0
  2  3  1  0
  3  4  2  0
  4  5  1  0
  5  6  2  0
  6  7  1  0
  7  8  1  0
  8  9  1  0
  9 10  2  0
  9 11  1  0
 11 12  1  0
 12 13  2  0
 13 14  1  0
 14 15  2  0
 15 16  1  0
 16 17  2  0
 16 18  1  0
 18 19  1  0
 18 20  1  0
 18 21  1  0
  7 22  2  0
 22 23  1  0
 23 24  2  0
 24 25  1  0
 25 26  2  0
 26  3  1  0
 25  6  1  0
 17 12  1  0
  1 27  1  0
  1 28  1  0
  1 29  1  0
  4 30  1  0
  5 31  1  0
  8 32  1  0
 11 33  1  0
 13 34  1  0
 14 35  1  0
 15 36  1  0
 22 37  1  0
 23 38  1  0
 26 39  1  0
M  END
>  <_MoleculeID>  (34) 
smi4

>  <_InputIndex>  (34) 
4

>  <_InputSMILES>  (34) 
COc1ccc2c(NC(=O)Nc3cccc(n3)C(F)(F)F)ccnc2c1

>  <_InputInChIKey>  (34) 
VQPBIJGXSXEOCU-UHFFFAOYSA-N

>  <_SMILES>  (34) 
COc1ccc2c(NC(=O)Nc3cccc(C(F)(F)F)n3)ccnc2c1

>  <_InChIKey>  (34) 
VQPBIJGXSXEOCU-UHFFFAOYSA-N

$$$$
smi4_conf5
     RDKit          3D

 39 41  0  0  0  0  0  0  0  0999 V2000
   -0.6538   -0.0000    1.2702 C   0  0  0  0  0  0  0  0  0  0  0  0
    0.0000   -0.0000    0.0000 O   0  0  0  0  0  0  0  0  0  0  0  0
    1.3760    0.0000    0.0000 C   0  0  0  0  0  0  0  0  0  0  0  0
    2.0831   -1.1993    0.0000 C   0  0  0  0  0  0  0  0  0  0  0  0
    3.4756   -1.1885   -0.0011 C   0  0  0  0  0  0  0  0  0  0  0  0
    4.1878    0.0274    0.0004 C   0  0  0  0  0  0  0  0  0  0  0  0
    5.5960    0.0987   -0.0103 C   0  0  0  0  0  0  0  0  0  0  0  0
    6.3584   -1.0695   -0.0199 N   0  0  0  0  0  0  0  0  0  0  0  0
    6.7725   -1.7141   -1.1928 C   0  0  0  0  0  0  0  0  0  0  0  0
    7.4433   -2.7422   -1.2414 O   0  0  0  0  0  0  0  0  0  0  0  0
    6.2901   -1.0146   -2.3090 N   0  0  0  0  0  0  0  0  0  0  0  0
    6.3782   -1.4223   -3.6402 C   0  0  0  0  0  0  0  0  0  0  0  0
    5.8652   -0.6528   -4.6863 C   0  0  0  0  0  0  0  0  0  0  0  0
    5.9871   -1.1036   -6.0066 C   0  0  0  0  0  0  0  0  0  0  0  0
    6.6051   -2.3316   -6.2354 C   0  0  0  0  0  0  0  0  0  0  0  0
    7.0730   -3.0414   -5.1443 C   0  0  0  0  0  0  0  0  0  0  0  0
    6.9698   -2.6206   -3.8641 N   0  0  0  0  0  0  0  0  0  0  0  0
    7.7381   -4.3582   -5.3233 C   0  0  0  0  0  0  0  0  0  0  0  0
    8.3949   -4.4728   -6.5113 F   0  0  0  0  0  0  0  0  0  0  0  0
    6.8715   -5.4086   -5.2838 F   0  0  0  0  0  0  0  0  0  0  0  0
    8.6663   -4.6030   -4.3579 F   0  0  0  0  0  0  0  0  0  0  0  0
    6.2448    1.3293    0.0227 C   0  0  0  0  0  0  0  0  0  0  0  0
    5.4540    2.4584    0.0268 C   0  0  0  0  0  0  0  0  0  0  0  0
    4.1024    2.4378    0.0141 N   0  0  0  0  0  0  0  0  0  0  0  0
    3.4771    1.2455    0.0057 C   0  0  0  0  0  0  0  0  0  0  0  0
    2.0826    1.2073    0.0050 C   0  0  0  0  0  0  0  0  0  0  0  0
   -1.7340    0.0000    1.1018 H   0  0  0  0  0  0  0  0  0  0  0  0
   -0.3819    0.8975    1.8343 H   0  0  0  0  0  0  0  0  0  0  0  0
   -0.3819   -0.8975    1.8343 H   0  0  0  0  0  0  0  0  0  0  0  0
    1.5573   -2.1508   -0.0020 H   0  0  0  0  0  0  0  0  0  0  0  0
    3.9996   -2.1417   -0.0053 H   0  0  0  0  0  0  0  0  0  0  0  0
    6.6142   -1.4804    0.8719 H   0  0  0  0  0  0  0  0  0  0  0  0
    5.7460   -0.1757   -2.1278 H   0  0  0  0  0  0  0  0  0  0  0  0
    5.3728    0.2927   -4.4754 H   0  0  0  0  0  0  0  0  0  0  0  0
    5.5990   -0.5146   -6.8306 H   0  0  0  0  0  0  0  0  0  0  0  0
    6.7196   -2.7319   -7.2369 H   0  0  0  0  0  0  0  0  0  0  0  0
    7.3252    1.4118    0.0500 H   0  0  0  0  0  0  0  0  0  0  0  0
    5.8982    3.4482    0.0459 H   0  0  0  0  0  0  0  0  0  0  0  0
    1.5522    2.1572    0.0118 H   0  0  0  0  0  0  0  0  0  0  0  0
  1  2  1  0
  2  3  1  0
  3  4  2  0
  4  5  1  0
  5  6  2  0
  6  7  1  0
  7  8  1  0
  8  9  1  0
  9 10  2  0
  9 11  1  0
 11 12  1  0
 12 13  2  0
 13 14  1  0
 14 15  2  0
 15 16  1  0
 16 17  2  0
 16 18  1  0
 18 19  1  0
 18 20  1  0
 18 21  1  0
  7 22  2  0
 22 23  1  0
 23 24  2  0
 24 25  1  0
 25 26  2  0
 26  3  1  0
 25  6  1  0
 17 12  1  0
  1 27  1  0
  1 28  1  0
  1 29  1  0
  4 30  1  0
  5 31  1  0
  8 32  1  0
 11 33  1  0
 13 34  1  0
 14 35  1  0
 15 36  1  0
 22 37  1  0
 23 38  1  0
 26 39  1  0
M  END
>  <_MoleculeID>  (35) 
smi4

>  <_InputIndex>  (35) 
4

>  <_InputSMILES>  (35) 
COc1ccc2c(NC(=O)Nc3cccc(n3)C(F)(F)F)ccnc2c1

>  <_InputInChIKey>  (35) 
VQPBIJGXSXEOCU-UHFFFAOYSA-N

>  <_SMILES>  (35) 
COc1ccc2c(NC(=O)Nc3cccc(C(F)(F)F)n3)ccnc2c1

>  <_InChIKey>  (35) 
VQPBIJGXSXEOCU-UHFFFAOYSA-N

$$$$
smi4_conf6
     RDKit          3D

 39 41  0  0  0  0  0  0  0  0999 V2000
   -0.6538   -0.0000    1.2702 C   0  0  0  0  0  0  0  0  0  0  0  0
    0.0000   -0.0000    0.0000 O   0  0  0  0  0  0  0  0  0  0  0  0
    1.3760    0.0000    0.0000 C   0  0  0  0  0  0  0  0  0  0  0  0
    2.0831    0.0000    1.1993 C   0  0  0  0  0  0  0  0  0  0  0  0
    3.4756   -0.0011    1.1885 C   0  0  0  0  0  0  0  0  0  0  0  0
    4.1878    0.0004   -0.0274 C   0  0  0  0  0  0  0  0  0  0  0  0
    5.5960   -0.0103   -0.0987 C   0  0  0  0  0  0  0  0  0  0  0  0
    6.3584   -0.0199    1.0695 N   0  0  0  0  0  0  0  0  0  0  0  0
    6.7725   -1.1928    1.7141 C   0  0  0  0  0  0  0  0  0  0  0  0
    7.4433   -1.2414    2.7422 O   0  0  0  0  0  0  0  0  0  0  0  0
    6.2901   -2.3090    1.0146 N   0  0  0  0  0  0  0  0  0  0  0  0
    6.3782   -3.6402    1.4223 C   0  0  0  0  0  0  0  0  0  0  0  0
    6.9848   -4.0082    2.6249 C   0  0  0  0  0  0  0  0  0  0  0  0
    7.0396   -5.3586    2.9921 C   0  0  0  0  0  0  0  0  0  0  0  0
    6.4995   -6.3058    2.1243 C   0  0  0  0  0  0  0  0  0  0  0  0
    5.9300   -5.8622    0.9444 C   0  0  0  0  0  0  0  0  0  0  0  0
    5.8625   -4.5638    0.5754 N   0  0  0  0  0  0  0  0  0  0  0  0
    5.3404   -6.8238   -0.0230 C   0  0  0  0  0  0  0  0  0  0  0  0
    4.3195   -7.5578    0.5014 F   0  0  0  0  0  0  0  0  0  0  0  0
    6.2389   -7.7337   -0.4928 F   0  0  0  0  0  0  0  0  0  0  0  0
    4.8285   -6.2028   -1.1211 F   0  0  0  0  0  0  0  0  0  0  0  0
    6.2448    0.0227   -1.3293 C   0  0  0  0  0  0  0  0  0  0  0  0
    5.4540    0.0268   -2.4584 C   0  0  0  0  0  0  0  0  0  0  0  0
    4.1024    0.0141   -2.4378 N   0  0  0  0  0  0  0  0  0  0  0  0
    3.4771    0.0057   -1.2455 C   0  0  0  0  0  0  0  0  0  0  0  0
    2.0826    0.0050   -1.2073 C   0  0  0  0  0  0  0  0  0  0  0  0
   -1.7340    0.0000    1.1018 H   0  0  0  0  0  0  0  0  0  0  0  0
   -0.3819    0.8975    1.8343 H   0  0  0  0  0  0  0  0  0  0  0  0
   -0.3819   -0.8975    1.8343 H   0  0  0  0  0  0  0  0  0  0  0  0
    1.5573   -0.0020    2.1508 H   0  0  0  0  0  0  0  0  0  0  0  0
    3.9996   -0.0053    2.1417 H   0  0  0  0  0  0  0  0  0  0  0  0
    6.6142    0.8719    1.4804 H   0  0  0  0  0  0  0  0  0  0  0  0
    5.7460   -2.1278    0.1757 H   0  0  0  0  0  0  0  0  0  0  0  0
    7.4129   -3.2482    3.2731 H   0  0  0  0  0  0  0  0  0  0  0  0
    7.5022   -5.6599    3.9257 H   0  0  0  0  0  0  0  0  0  0  0  0
    6.5214   -7.3654    2.3553 H   0  0  0  0  0  0  0  0  0  0  0  0
    7.3252    0.0500   -1.4118 H   0  0  0  0  0  0  0  0  0  0  0  0
    5.8982    0.0459   -3.4482 H   0  0  0  0  0  0  0  0  0  0  0  0
    1.5522    0.0118   -2.1572 H   0  0  0  0  0  0  0  0  0  0  0  0
  1  2  1  0
  2  3  1  0
  3  4  2  0
  4  5  1  0
  5  6  2  0
  6  7  1  0
  7  8  1  0
  8  9  1  0
  9 10  2  0
  9 11  1  0
 11 12  1  0
 12 13  2  0
 13 14  1  0
 14 15  2  0
 15 16  1  0
 16 17  2  0
 16 18  1  0
 18 19  1  0
 18 20  1  0
 18 21  1  0
  7 22  2  0
 22 23  1  0
 23 24  2  0
 24 25  1  0
 25 26  2  0
 26  3  1  0
 25  6  1  0
 17 12  1  0
  1 27  1  0
  1 28  1  0
  1 29  1  0
  4 30  1  0
  5 31  1  0
  8 32  1  0
 11 33  1  0
 13 34  1  0
 14 35  1  0
 15 36  1  0
 22 37  1  0
 23 38  1  0
 26 39  1  0
M  END
>  <_MoleculeID>  (36) 
smi4

>  <_InputIndex>  (36) 
4

>  <_InputSMILES>  (36) 
COc1ccc2c(NC(=O)Nc3cccc(n3)C(F)(F)F)ccnc2c1

>  <_InputInChIKey>  (36) 
VQPBIJGXSXEOCU-UHFFFAOYSA-N

>  <_SMILES>  (36) 
COc1ccc2c(NC(=O)Nc3cccc(C(F)(F)F)n3)ccnc2c1

>  <_InChIKey>  (36) 
VQPBIJGXSXEOCU-UHFFFAOYSA-N

$$$$
smi4_conf7
     RDKit          3D

 39 41  0  0  0  0  0  0  0  0999 V2000
   -0.6538   -0.0000    1.2702 C   0  0  0  0  0  0  0  0  0  0  0  0
    0.0000   -0.0000    0.0000 O   0  0  0  0  0  0  0  0  0  0  0  0
    1.3760   -0.0000    0.0000 C   0  0  0  0  0  0  0  0  0  0  0  0
    2.0831   -0.0000   -1.1993 C   0  0  0  0  0  0  0  0  0  0  0  0
    3.4756    0.0011   -1.1885 C   0  0  0  0  0  0  0  0  0  0  0  0
    4.1878   -0.0004    0.0274 C   0  0  0  0  0  0  0  0  0  0  0  0
    5.5960    0.0103    0.0987 C   0  0  0  0  0  0  0  0  0  0  0  0
    6.3584    0.0199   -1.0695 N   0  0  0  0  0  0  0  0  0  0  0  0
    6.7906   -1.1422   -1.7216 C   0  0  0  0  0  0  0  0  0  0  0  0
    7.4620   -1.1737   -2.7500 O   0  0  0  0  0  0  0  0  0  0  0  0
    6.3530   -2.2701   -1.0115 N   0  0  0  0  0  0  0  0  0  0  0  0
    6.7008   -3.5957   -1.2717 C   0  0  0  0  0  0  0  0  0  0  0  0
    7.5602   -3.9451   -2.3152 C   0  0  0  0  0  0  0  0  0  0  0  0
    7.8844   -5.2907   -2.5290 C   0  0  0  0  0  0  0  0  0  0  0  0
    7.3148   -6.2520   -1.6962 C   0  0  0  0  0  0  0  0  0  0  0  0
    6.4607   -5.8265   -0.6949 C   0  0  0  0  0  0  0  0  0  0  0  0
    6.1403   -4.5330   -0.4695 N   0  0  0  0  0  0  0  0  0  0  0  0
    5.8198   -6.8037    0.2230 C   0  0  0  0  0  0  0  0  0  0  0  0
    6.5731   -7.9192    0.4332 F   0  0  0  0  0  0  0  0  0  0  0  0
    4.6167   -7.2566   -0.2279 F   0  0  0  0  0  0  0  0  0  0  0  0
    5.5823   -6.2755    1.4551 F   0  0  0  0  0  0  0  0  0  0  0  0
    6.2448   -0.0227    1.3293 C   0  0  0  0  0  0  0  0  0  0  0  0
    5.4540   -0.0268    2.4584 C   0  0  0  0  0  0  0  0  0  0  0  0
    4.1024   -0.0141    2.4378 N   0  0  0  0  0  0  0  0  0  0  0  0
    3.4771   -0.0057    1.2455 C   0  0  0  0  0  0  0  0  0  0  0  0
    2.0826   -0.0050    1.2073 C   0  0  0  0  0  0  0  0  0  0  0  0
   -1.7340    0.0000    1.1018 H   0  0  0  0  0  0  0  0  0  0  0  0
   -0.3819    0.8975    1.8343 H   0  0  0  0  0  0  0  0  0  0  0  0
   -0.3819   -0.8975    1.8343 H   0  0  0  0  0  0  0  0  0  0  0  0
    1.5573    0.0020   -2.1508 H   0  0  0  0  0  0  0  0  0  0  0  0
    3.9996    0.0053   -2.1417 H   0  0  0  0  0  0  0  0  0  0  0  0
    6.6248    0.9184   -1.4586 H   0  0  0  0  0  0  0  0  0  0  0  0
    5.8028   -2.1028   -0.1737 H   0  0  0  0  0  0  0  0  0  0  0  0
    7.9753   -3.1745   -2.9592 H   0  0  0  0  0  0  0  0  0  0  0  0
    8.5551   -5.5776   -3.3317 H   0  0  0  0  0  0  0  0  0  0  0  0
    7.5254   -7.3086   -1.8216 H   0  0  0  0  0  0  0  0  0  0  0  0
    7.3252   -0.0500    1.4118 H   0  0  0  0  0  0  0  0  0  0  0  0
    5.8982   -0.0459    3.4482 H   0  0  0  0  0  0  0  0  0  0  0  0
    1.5522   -0.0118    2.1572 H   0  0  0  0  0  0  0  0  0  0  0  0
  1  2  1  0
  2  3  1  0
  3  4  2  0
  4  5  1  0
  5  6  2  0
  6  7  1  0
  7  8  1  0
  8  9  1  0
  9 10  2  0
  9 11  1  0
 11 12  1  0
 12 13  2  0
 13 14  1  0
 14 15  2  0
 15 16  1  0
 16 17  2  0
 16 18  1  0
 18 19  1  0
 18 20  1  0
 18 21  1  0
  7 22  2  0
 22 23  1  0
 23 24  2  0
 24 25  1  0
 25 26  2  0
 26  3  1  0
 25  6  1  0
 17 12  1  0
  1 27  1  0
  1 28  1  0
  1 29  1  0
  4 30  1  0
  5 31  1  0
  8 32  1  0
 11 33  1  0
 13 34  1  0
 14 35  1  0
 15 36  1  0
 22 37  1  0
 23 38  1  0
 26 39  1  0
M  END
>  <_MoleculeID>  (37) 
smi4

>  <_InputIndex>  (37) 
4

>  <_InputSMILES>  (37) 
COc1ccc2c(NC(=O)Nc3cccc(n3)C(F)(F)F)ccnc2c1

>  <_InputInChIKey>  (37) 
VQPBIJGXSXEOCU-UHFFFAOYSA-N

>  <_SMILES>  (37) 
COc1ccc2c(NC(=O)Nc3cccc(C(F)(F)F)n3)ccnc2c1

>  <_InChIKey>  (37) 
VQPBIJGXSXEOCU-UHFFFAOYSA-N

$$$$
smi4_conf8
     RDKit          3D

 39 41  0  0  0  0  0  0  0  0999 V2000
   -0.6538   -0.0000    1.2702 C   0  0  0  0  0  0  0  0  0  0  0  0
    0.0000   -0.0000    0.0000 O   0  0  0  0  0  0  0  0  0  0  0  0
    1.3760    0.0000    0.0000 C   0  0  0  0  0  0  0  0  0  0  0  0
    2.0831    0.0000    1.1993 C   0  0  0  0  0  0  0  0  0  0  0  0
    3.4756   -0.0011    1.1885 C   0  0  0  0  0  0  0  0  0  0  0  0
    4.1878    0.0004   -0.0274 C   0  0  0  0  0  0  0  0  0  0  0  0
    5.5960   -0.0103   -0.0987 C   0  0  0  0  0  0  0  0  0  0  0  0
    6.3584   -0.0199    1.0695 N   0  0  0  0  0  0  0  0  0  0  0  0
    6.7725   -1.1928    1.7141 C   0  0  0  0  0  0  0  0  0  0  0  0
    6.5227   -2.3364    1.3412 O   0  0  0  0  0  0  0  0  0  0  0  0
    7.5328   -0.8636    2.8462 N   0  0  0  0  0  0  0  0  0  0  0  0
    7.7306    0.4165    3.3641 C   0  0  0  0  0  0  0  0  0  0  0  0
    8.5082    0.6436    4.5014 C   0  0  0  0  0  0  0  0  0  0  0  0
    8.6824    1.9496    4.9761 C   0  0  0  0  0  0  0  0  0  0  0  0
    8.0483    2.9918    4.3023 C   0  0  0  0  0  0  0  0  0  0  0  0
    7.2823    2.6828    3.1927 C   0  0  0  0  0  0  0  0  0  0  0  0
    7.1070    1.4302    2.7164 N   0  0  0  0  0  0  0  0  0  0  0  0
    6.5791    3.7497    2.4342 C   0  0  0  0  0  0  0  0  0  0  0  0
    7.4212    4.6883    1.9186 F   0  0  0  0  0  0  0  0  0  0  0  0
    5.6798    4.4423    3.1876 F   0  0  0  0  0  0  0  0  0  0  0  0
    5.8784    3.2551    1.3769 F   0  0  0  0  0  0  0  0  0  0  0  0
    6.2448    0.0227   -1.3293 C   0  0  0  0  0  0  0  0  0  0  0  0
    5.4540    0.0268   -2.4584 C   0  0  0  0  0  0  0  0  0  0  0  0
    4.1024    0.0141   -2.4378 N   0  0  0  0  0  0  0  0  0  0  0  0
    3.4771    0.0057   -1.2455 C   0  0  0  0  0  0  0  0  0  0  0  0
    2.0826    0.0050   -1.2073 C   0  0  0  0  0  0  0  0  0  0  0  0
   -1.7340    0.0000    1.1018 H   0  0  0  0  0  0  0  0  0  0  0  0
   -0.3819    0.8975    1.8343 H   0  0  0  0  0  0  0  0  0  0  0  0
   -0.3819   -0.8975    1.8343 H   0  0  0  0  0  0  0  0  0  0  0  0
    1.5573   -0.0020    2.1508 H   0  0  0  0  0  0  0  0  0  0  0  0
    3.9996   -0.0053    2.1417 H   0  0  0  0  0  0  0  0  0  0  0  0
    6.6142    0.8719    1.4804 H   0  0  0  0  0  0  0  0  0  0  0  0
    7.9016   -1.6356    3.3945 H   0  0  0  0  0  0  0  0  0  0  0  0
    8.9762   -0.1914    5.0161 H   0  0  0  0  0  0  0  0  0  0  0  0
    9.2881    2.1430    5.8547 H   0  0  0  0  0  0  0  0  0  0  0  0
    8.1429    4.0211    4.6308 H   0  0  0  0  0  0  0  0  0  0  0  0
    7.3252    0.0500   -1.4118 H   0  0  0  0  0  0  0  0  0  0  0  0
    5.8982    0.0459   -3.4482 H   0  0  0  0  0  0  0  0  0  0  0  0
    1.5522    0.0118   -2.1572 H   0  0  0  0  0  0  0  0  0  0  0  0
  1  2  1  0
  2  3  1  0
  3  4  2  0
  4  5  1  0
  5  6  2  0
  6  7  1  0
  7  8  1  0
  8  9  1  0
  9 10  2  0
  9 11  1  0
 11 12  1  0
 12 13  2  0
 13 14  1  0
 14 15  2  0
 15 16  1  0
 16 17  2  0
 16 18  1  0
 18 19  1  0
 18 20  1  0
 18 21  1  0
  7 22  2  0
 22 23  1  0
 23 24  2  0
 24 25  1  0
 25 26  2  0
 26  3  1  0
 25  6  1  0
 17 12  1  0
  1 27  1  0
  1 28  1  0
  1 29  1  0
  4 30  1  0
  5 31  1  0
  8 32  1  0
 11 33  1  0
 13 34  1  0
 14 35  1  0
 15 36  1  0
 22 37  1  0
 23 38  1  0
 26 39  1  0
M  END
>  <_MoleculeID>  (38) 
smi4

>  <_InputIndex>  (38) 
4

>  <_InputSMILES>  (38) 
COc1ccc2c(NC(=O)Nc3cccc(n3)C(F)(F)F)ccnc2c1

>  <_InputInChIKey>  (38) 
VQPBIJGXSXEOCU-UHFFFAOYSA-N

>  <_SMILES>  (38) 
COc1ccc2c(NC(=O)Nc3cccc(C(F)(F)F)n3)ccnc2c1

>  <_InChIKey>  (38) 
VQPBIJGXSXEOCU-UHFFFAOYSA-N

$$$$
smi4_conf9
     RDKit          3D

 39 41  0  0  0  0  0  0  0  0999 V2000
   -0.6538   -0.0000    1.2702 C   0  0  0  0  0  0  0  0  0  0  0  0
    0.0000   -0.0000    0.0000 O   0  0  0  0  0  0  0  0  0  0  0  0
    1.3760    0.0000   -0.0000 C   0  0  0  0  0  0  0  0  0  0  0  0
    2.0831    1.1993   -0.0000 C   0  0  0  0  0  0  0  0  0  0  0  0
    3.4756    1.1885    0.0011 C   0  0  0  0  0  0  0  0  0  0  0  0
    4.1878   -0.0274   -0.0004 C   0  0  0  0  0  0  0  0  0  0  0  0
    5.5960   -0.0987    0.0103 C   0  0  0  0  0  0  0  0  0  0  0  0
    6.3584    1.0695    0.0199 N   0  0  0  0  0  0  0  0  0  0  0  0
    6.7725    1.7141    1.1928 C   0  0  0  0  0  0  0  0  0  0  0  0
    6.5227    1.3412    2.3364 O   0  0  0  0  0  0  0  0  0  0  0  0
    7.5328    2.8462    0.8636 N   0  0  0  0  0  0  0  0  0  0  0  0
    7.7306    3.3641   -0.4165 C   0  0  0  0  0  0  0  0  0  0  0  0
    8.5082    4.5014   -0.6436 C   0  0  0  0  0  0  0  0  0  0  0  0
    8.6824    4.9761   -1.9496 C   0  0  0  0  0  0  0  0  0  0  0  0
    8.0483    4.3023   -2.9918 C   0  0  0  0  0  0  0  0  0  0  0  0
    7.2823    3.1927   -2.6828 C   0  0  0  0  0  0  0  0  0  0  0  0
    7.1070    2.7164   -1.4302 N   0  0  0  0  0  0  0  0  0  0  0  0
    6.5791    2.4342   -3.7497 C   0  0  0  0  0  0  0  0  0  0  0  0
    6.7784    2.9472   -4.9959 F   0  0  0  0  0  0  0  0  0  0  0  0
    5.2275    2.3982   -3.5829 F   0  0  0  0  0  0  0  0  0  0  0  0
    6.9827    1.1354   -3.8112 F   0  0  0  0  0  0  0  0  0  0  0  0
    6.2448   -1.3293   -0.0227 C   0  0  0  0  0  0  0  0  0  0  0  0
    5.4540   -2.4584   -0.0268 C   0  0  0  0  0  0  0  0  0  0  0  0
    4.1024   -2.4378   -0.0141 N   0  0  0  0  0  0  0  0  0  0  0  0
    3.4771   -1.2455   -0.0057 C   0  0  0  0  0  0  0  0  0  0  0  0
    2.0826   -1.2073   -0.0050 C   0  0  0  0  0  0  0  0  0  0  0  0
   -1.7340    0.0000    1.1018 H   0  0  0  0  0  0  0  0  0  0  0  0
   -0.3819    0.8975    1.8343 H   0  0  0  0  0  0  0  0  0  0  0  0
   -0.3819   -0.8975    1.8343 H   0  0  0  0  0  0  0  0  0  0  0  0
    1.5573    2.1508    0.0020 H   0  0  0  0  0  0  0  0  0  0  0  0
    3.9996    2.1417    0.0053 H   0  0  0  0  0  0  0  0  0  0  0  0
    6.6142    1.4804   -0.8719 H   0  0  0  0  0  0  0  0  0  0  0  0
    7.9016    3.3945    1.6356 H   0  0  0  0  0  0  0  0  0  0  0  0
    8.9762    5.0161    0.1914 H   0  0  0  0  0  0  0  0  0  0  0  0
    9.2881    5.8547   -2.1430 H   0  0  0  0  0  0  0  0  0  0  0  0
    8.1429    4.6308   -4.0211 H   0  0  0  0  0  0  0  0  0  0  0  0
    7.3252   -1.4118   -0.0500 H   0  0  0  0  0  0  0  0  0  0  0  0
    5.8982   -3.4482   -0.0459 H   0  0  0  0  0  0  0  0  0  0  0  0
    1.5522   -2.1572   -0.0118 H   0  0  0  0  0  0  0  0  0  0  0  0
  1  2  1  0
  2  3  1  0
  3  4  2  0
  4  5  1  0
  5  6  2  0
  6  7  1  0
  7  8  1  0
  8  9  1  0
  9 10  2  0
  9 11  1  0
 11 12  1  0
 12 13  2  0
 13 14  1  0
 14 15  2  0
 15 16  1  0
 16 17  2  0
 16 18  1  0
 18 19  1  0
 18 20  1  0
 18 21  1  0
  7 22  2  0
 22 23  1  0
 23 24  2  0
 24 25  1  0
 25 26  2  0
 26  3  1  0
 25  6  1  0
 17 12  1  0
  1 27  1  0
  1 28  1  0
  1 29  1  0
  4 30  1  0
  5 31  1  0
  8 32  1  0
 11 33  1  0
 13 34  1  0
 14 35  1  0
 15 36  1  0
 22 37  1  0
 23 38  1  0
 26 39  1  0
M  END
>  <_MoleculeID>  (39) 
smi4

>  <_InputIndex>  (39) 
4

>  <_InputSMILES>  (39) 
COc1ccc2c(NC(=O)Nc3cccc(n3)C(F)(F)F)ccnc2c1

>  <_InputInChIKey>  (39) 
VQPBIJGXSXEOCU-UHFFFAOYSA-N

>  <_SMILES>  (39) 
COc1ccc2c(NC(=O)Nc3cccc(C(F)(F)F)n3)ccnc2c1

>  <_InChIKey>  (39) 
VQPBIJGXSXEOCU-UHFFFAOYSA-N

$$$$
smi5_conf0
     RDKit          3D

 47 49  0  0  0  0  0  0  0  0999 V2000
   -0.5395   -0.0006   -1.2513 O   0  0  0  0  0  0  0  0  0  0  0  0
    0.0000   -0.0000    0.0000 C   0  0  0  0  0  0  0  0  0  0  0  0
   -0.7012    0.0000    1.0055 O   0  0  0  0  0  0  0  0  0  0  0  0
    1.4570    0.0000    0.0000 C   0  0  0  0  0  0  0  0  0  0  0  0
    2.1681   -0.0195   -1.2025 C   0  0  0  0  0  0  0  0  0  0  0  0
    3.5708   -0.0186   -1.2108 C   0  0  0  0  0  0  0  0  0  0  0  0
    4.3190   -0.0013   -0.0236 C   0  0  0  0  0  0  0  0  0  0  0  0
    3.5696    0.0035    1.1688 C   0  0  0  0  0  0  0  0  0  0  0  0
    2.1684    0.0000    1.1992 C   0  0  0  0  0  0  0  0  0  0  0  0
    1.4823    0.0039    2.4138 N   0  0  0  0  0  0  0  0  0  0  0  0
    1.0764   -1.1304    3.1285 C   0  0  0  0  0  0  0  0  0  0  0  0
    1.2907   -2.2817    2.7455 O   0  0  0  0  0  0  0  0  0  0  0  0
    0.4257   -0.8268    4.2941 N   0  0  0  0  0  0  0  0  0  0  0  0
    0.1477    0.5266    4.7912 C   0  0  0  0  0  0  0  0  0  0  0  0
   -1.3450    0.7050    5.0653 C   0  0  0  0  0  0  0  0  0  0  0  0
   -1.8725   -0.3883    6.0079 C   0  0  0  0  0  0  0  0  0  0  0  0
   -1.5254   -1.7804    5.4573 C   0  0  0  0  0  0  0  0  0  0  0  0
   -0.0297   -1.9042    5.1752 C   0  0  0  0  0  0  0  0  0  0  0  0
   -3.3383   -0.2503    6.2094 C   0  0  0  0  0  0  0  0  0  0  0  0
   -4.2141   -0.3084    5.1224 C   0  0  0  0  0  0  0  0  0  0  0  0
   -5.5990   -0.1800    5.3045 C   0  0  0  0  0  0  0  0  0  0  0  0
   -6.1648    0.0139    6.5742 C   0  0  0  0  0  0  0  0  0  0  0  0
   -5.2516    0.0818    7.6441 C   0  0  0  0  0  0  0  0  0  0  0  0
   -3.8647   -0.0413    7.4836 C   0  0  0  0  0  0  0  0  0  0  0  0
   -2.9548    0.0410    8.6556 C   0  0  0  0  0  0  0  0  0  0  0  0
   -2.0483    1.0537    8.5636 F   0  0  0  0  0  0  0  0  0  0  0  0
   -2.2193   -1.0897    8.8462 F   0  0  0  0  0  0  0  0  0  0  0  0
   -3.6300    0.2483    9.8195 F   0  0  0  0  0  0  0  0  0  0  0  0
    0.0736   -0.0013   -2.0146 H   0  0  0  0  0  0  0  0  0  0  0  0
    1.6384   -0.0390   -2.1521 H   0  0  0  0  0  0  0  0  0  0  0  0
    4.0596   -0.0397   -2.1817 H   0  0  0  0  0  0  0  0  0  0  0  0
    5.4009   -0.0009   -0.0237 H   0  0  0  0  0  0  0  0  0  0  0  0
    4.1084    0.0101    2.1155 H   0  0  0  0  0  0  0  0  0  0  0  0
    1.3962    0.9107    2.8621 H   0  0  0  0  0  0  0  0  0  0  0  0
    0.4806    1.2984    4.0958 H   0  0  0  0  0  0  0  0  0  0  0  0
    0.7230    0.6561    5.7156 H   0  0  0  0  0  0  0  0  0  0  0  0
   -1.8903    0.6735    4.1122 H   0  0  0  0  0  0  0  0  0  0  0  0
   -1.5229    1.6971    5.4982 H   0  0  0  0  0  0  0  0  0  0  0  0
   -1.3723   -0.2714    6.9792 H   0  0  0  0  0  0  0  0  0  0  0  0
   -2.0818   -1.9653    4.5284 H   0  0  0  0  0  0  0  0  0  0  0  0
   -1.8311   -2.5575    6.1686 H   0  0  0  0  0  0  0  0  0  0  0  0
    0.5444   -1.8311    6.1065 H   0  0  0  0  0  0  0  0  0  0  0  0
    0.1821   -2.8846    4.7374 H   0  0  0  0  0  0  0  0  0  0  0  0
   -3.8290   -0.4515    4.1154 H   0  0  0  0  0  0  0  0  0  0  0  0
   -6.2216   -0.2295    4.4146 H   0  0  0  0  0  0  0  0  0  0  0  0
   -7.2320    0.1140    6.7208 H   0  0  0  0  0  0  0  0  0  0  0  0
   -5.6450    0.2382    8.6477 H   0  0  0  0  0  0  0  0  0  0  0  0
  1  2  1  0
  2  3  2  0
  2  4  1  0
  4  5  2  0
  5  6  1  0
  6  7  2  0
  7  8  1  0
  8  9  2  0
  9 10  1  0
 10 11  1  0
 11 12  2  0
 11 13  1  0
 13 14  1  0
 14 15  1  0
 15 16  1  0
 16 17  1  0
 17 18  1  0
 16 19  1  0
 19 20  2  0
 20 21  1  0
 21 22  2  0
 22 23  1  0
 23 24  2  0
 24 25  1  0
 25 26  1  0
 25 27  1  0
 25 28  1  0
  9  4  1  0
 18 13  1  0
 24 19  1  0
  1 29  1  0
  5 30  1  0
  6 31  1  0
  7 32  1  0
  8 33  1  0
 10 34  1  0
 14 35  1  0
 14 36  1  0
 15 37  1  0
 15 38  1  0
 16 39  1  0
 17 40  1  0
 17 41  1  0
 18 42  1  0
 18 43  1  0
 20 44  1  0
 21 45  1  0
 22 46  1  0
 23 47  1  0
M  END
>  <_MoleculeID>  (40) 
smi5

>  <_InputIndex>  (40) 
5

>  <_InputSMILES>  (40) 
OC(=O)c1ccccc1NC(=O)N1CCC(CC1)c1ccccc1C(F)(F)F

>  <_InputInChIKey>  (40) 
MEAQCLPMSVEOQF-UHFFFAOYSA-N

>  <_SMILES>  (40) 
O=C(O)c1ccccc1NC(=O)N1CCC(c2ccccc2C(F)(F)F)CC1

>  <_InChIKey>  (40) 
MEAQCLPMSVEOQF-UHFFFAOYSA-N

$$$$
smi5_conf1
     RDKit          3D

 47 49  0  0  0  0  0  0  0  0999 V2000
   -0.5395   -0.0006   -1.2513 O   0  0  0  0  0  0  0  0  0  0  0  0
    0.0000   -0.0000    0.0000 C   0  0  0  0  0  0  0  0  0  0  0  0
   -0.7012    0.0000    1.0055 O   0  0  0  0  0  0  0  0  0  0  0  0
    1.4570    0.0000    0.0000 C   0  0  0  0  0  0  0  0  0  0  0  0
    2.1681   -0.0195   -1.2025 C   0  0  0  0  0  0  0  0  0  0  0  0
    3.5708   -0.0186   -1.2108 C   0  0  0  0  0  0  0  0  0  0  0  0
    4.3190   -0.0013   -0.0236 C   0  0  0  0  0  0  0  0  0  0  0  0
    3.5696    0.0035    1.1688 C   0  0  0  0  0  0  0  0  0  0  0  0
    2.1684    0.0000    1.1992 C   0  0  0  0  0  0  0  0  0  0  0  0
    1.4823    0.0039    2.4138 N   0  0  0  0  0  0  0  0  0  0  0  0
    1.0764   -1.1304    3.1285 C   0  0  0  0  0  0  0  0  0  0  0  0
    1.2907   -2.2817    2.7455 O   0  0  0  0  0  0  0  0  0  0  0  0
    0.4257   -0.8268    4.2941 N   0  0  0  0  0  0  0  0  0  0  0  0
    0.1477    0.5266    4.7912 C   0  0  0  0  0  0  0  0  0  0  0  0
    0.6977    0.7058    6.2056 C   0  0  0  0  0  0  0  0  0  0  0  0
    0.1728   -0.3875    7.1497 C   0  0  0  0  0  0  0  0  0  0  0  0
    0.4601   -1.7797    6.5657 C   0  0  0  0  0  0  0  0  0  0  0  0
   -0.0847   -1.9042    5.1445 C   0  0  0  0  0  0  0  0  0  0  0  0
    0.7706   -0.2488    8.5031 C   0  0  0  0  0  0  0  0  0  0  0  0
    2.1527   -0.3446    8.6832 C   0  0  0  0  0  0  0  0  0  0  0  0
    2.7246   -0.2137    9.9573 C   0  0  0  0  0  0  0  0  0  0  0  0
    1.9432    0.0144   11.1006 C   0  0  0  0  0  0  0  0  0  0  0  0
    0.5538    0.0908   10.8836 C   0  0  0  0  0  0  0  0  0  0  0  0
   -0.0379   -0.0398    9.6198 C   0  0  0  0  0  0  0  0  0  0  0  0
   -1.5125    0.0498    9.4593 C   0  0  0  0  0  0  0  0  0  0  0  0
   -2.0657   -1.0754    8.9267 F   0  0  0  0  0  0  0  0  0  0  0  0
   -1.9041    1.0687    8.6443 F   0  0  0  0  0  0  0  0  0  0  0  0
   -2.1492    0.2540   10.6452 F   0  0  0  0  0  0  0  0  0  0  0  0
    0.0736   -0.0013   -2.0146 H   0  0  0  0  0  0  0  0  0  0  0  0
    1.6384   -0.0390   -2.1521 H   0  0  0  0  0  0  0  0  0  0  0  0
    4.0596   -0.0397   -2.1817 H   0  0  0  0  0  0  0  0  0  0  0  0
    5.4009   -0.0009   -0.0237 H   0  0  0  0  0  0  0  0  0  0  0  0
    4.1084    0.0101    2.1155 H   0  0  0  0  0  0  0  0  0  0  0  0
    1.3962    0.9107    2.8621 H   0  0  0  0  0  0  0  0  0  0  0  0
    0.5644    1.2984    4.1425 H   0  0  0  0  0  0  0  0  0  0  0  0
   -0.9412    0.6555    4.7866 H   0  0  0  0  0  0  0  0  0  0  0  0
    1.7951    0.6749    6.1695 H   0  0  0  0  0  0  0  0  0  0  0  0
    0.4220    1.6978    6.5839 H   0  0  0  0  0  0  0  0  0  0  0  0
   -0.9165   -0.2712    7.2336 H   0  0  0  0  0  0  0  0  0  0  0  0
    1.5429   -1.9640    6.5517 H   0  0  0  0  0  0  0  0  0  0  0  0
    0.0155   -2.5568    7.1994 H   0  0  0  0  0  0  0  0  0  0  0  0
   -1.1788   -1.8318    5.1446 H   0  0  0  0  0  0  0  0  0  0  0  0
    0.1774   -2.8846    4.7348 H   0  0  0  0  0  0  0  0  0  0  0  0
    2.8050   -0.5262    7.8321 H   0  0  0  0  0  0  0  0  0  0  0  0
    3.8058   -0.3043   10.0258 H   0  0  0  0  0  0  0  0  0  0  0  0
    2.3785    0.1157   12.0858 H   0  0  0  0  0  0  0  0  0  0  0  0
   -0.0931    0.2601   11.7435 H   0  0  0  0  0  0  0  0  0  0  0  0
  1  2  1  0
  2  3  2  0
  2  4  1  0
  4  5  2  0
  5  6  1  0
  6  7  2  0
  7  8  1  0
  8  9  2  0
  9 10  1  0
 10 11  1  0
 11 12  2  0
 11 13  1  0
 13 14  1  0
 14 15  1  0
 15 16  1  0
 16 17  1  0
 17 18  1  0
 16 19  1  0
 19 20  2  0
 20 21  1  0
 21 22  2  0
 22 23  1  0
 23 24  2  0
 24 25  1  0
 25 26  1  0
 25 27  1  0
 25 28  1  0
  9  4  1  0
 18 13  1  0
 24 19  1  0
  1 29  1  0
  5 30  1  0
  6 31  1  0
  7 32  1  0
  8 33  1  0
 10 34  1  0
 14 35  1  0
 14 36  1  0
 15 37  1  0
 15 38  1  0
 16 39  1  0
 17 40  1  0
 17 41  1  0
 18 42  1  0
 18 43  1  0
 20 44  1  0
 21 45  1  0
 22 46  1  0
 23 47  1  0
M  END
>  <_MoleculeID>  (41) 
smi5

>  <_InputIndex>  (41) 
5

>  <_InputSMILES>  (41) 
OC(=O)c1ccccc1NC(=O)N1CCC(CC1)c1ccccc1C(F)(F)F

>  <_InputInChIKey>  (41) 
MEAQCLPMSVEOQF-UHFFFAOYSA-N

>  <_SMILES>  (41) 
O=C(O)c1ccccc1NC(=O)N1CCC(c2ccccc2C(F)(F)F)CC1

>  <_InChIKey>  (41) 
MEAQCLPMSVEOQF-UHFFFAOYSA-N

$$$$
smi5_conf2
     RDKit          3D

 47 49  0  0  0  0  0  0  0  0999 V2000
   -0.5395   -0.0006   -1.2513 O   0  0  0  0  0  0  0  0  0  0  0  0
    0.0000   -0.0000    0.0000 C   0  0  0  0  0  0  0  0  0  0  0  0
   -0.7012    0.0000    1.0055 O   0  0  0  0  0  0  0  0  0  0  0  0
    1.4570    0.0000    0.0000 C   0  0  0  0  0  0  0  0  0  0  0  0
    2.1681   -0.0195   -1.2025 C   0  0  0  0  0  0  0  0  0  0  0  0
    3.5708   -0.0186   -1.2108 C   0  0  0  0  0  0  0  0  0  0  0  0
    4.3190   -0.0013   -0.0236 C   0  0  0  0  0  0  0  0  0  0  0  0
    3.5696    0.0035    1.1688 C   0  0  0  0  0  0  0  0  0  0  0  0
    2.1684    0.0000    1.1992 C   0  0  0  0  0  0  0  0  0  0  0  0
    1.4823    0.0039    2.4138 N   0  0  0  0  0  0  0  0  0  0  0  0
    1.0764   -1.1304    3.1285 C   0  0  0  0  0  0  0  0  0  0  0  0
    1.2907   -2.2817    2.7455 O   0  0  0  0  0  0  0  0  0  0  0  0
    0.4257   -0.8268    4.2941 N   0  0  0  0  0  0  0  0  0  0  0  0
   -0.0663   -1.8814    5.1761 C   0  0  0  0  0  0  0  0  0  0  0  0
   -0.0921   -1.4266    6.6320 C   0  0  0  0  0  0  0  0  0  0  0  0
   -0.9380   -0.1563    6.8339 C   0  0  0  0  0  0  0  0  0  0  0  0
   -1.0393    0.6991    5.5596 C   0  0  0  0  0  0  0  0  0  0  0  0
    0.2041    0.5611    4.6892 C   0  0  0  0  0  0  0  0  0  0  0  0
   -2.3002   -0.4928    7.3232 C   0  0  0  0  0  0  0  0  0  0  0  0
   -3.1541   -1.2902    6.5570 C   0  0  0  0  0  0  0  0  0  0  0  0
   -4.4410   -1.6131    7.0124 C   0  0  0  0  0  0  0  0  0  0  0  0
   -4.9280   -1.1528    8.2455 C   0  0  0  0  0  0  0  0  0  0  0  0
   -4.0460   -0.3403    8.9839 C   0  0  0  0  0  0  0  0  0  0  0  0
   -2.7578   -0.0036    8.5461 C   0  0  0  0  0  0  0  0  0  0  0  0
   -1.8765    0.8601    9.3740 C   0  0  0  0  0  0  0  0  0  0  0  0
   -1.5000    2.0073    8.7431 F   0  0  0  0  0  0  0  0  0  0  0  0
   -0.7157    0.2491    9.7416 F   0  0  0  0  0  0  0  0  0  0  0  0
   -2.4765    1.2502   10.5322 F   0  0  0  0  0  0  0  0  0  0  0  0
    0.0736   -0.0013   -2.0146 H   0  0  0  0  0  0  0  0  0  0  0  0
    1.6384   -0.0390   -2.1521 H   0  0  0  0  0  0  0  0  0  0  0  0
    4.0596   -0.0397   -2.1817 H   0  0  0  0  0  0  0  0  0  0  0  0
    5.4009   -0.0009   -0.0237 H   0  0  0  0  0  0  0  0  0  0  0  0
    4.1084    0.0101    2.1155 H   0  0  0  0  0  0  0  0  0  0  0  0
    1.3962    0.9107    2.8621 H   0  0  0  0  0  0  0  0  0  0  0  0
    0.5619   -2.7715    5.0589 H   0  0  0  0  0  0  0  0  0  0  0  0
   -1.0742   -2.1472    4.8360 H   0  0  0  0  0  0  0  0  0  0  0  0
    0.9390   -1.2063    6.9404 H   0  0  0  0  0  0  0  0  0  0  0  0
   -0.4363   -2.2458    7.2748 H   0  0  0  0  0  0  0  0  0  0  0  0
   -0.4580    0.4400    7.6204 H   0  0  0  0  0  0  0  0  0  0  0  0
   -1.1876    1.7513    5.8316 H   0  0  0  0  0  0  0  0  0  0  0  0
   -1.9159    0.4044    4.9663 H   0  0  0  0  0  0  0  0  0  0  0  0
    1.0959    0.8912    5.2352 H   0  0  0  0  0  0  0  0  0  0  0  0
    0.1225    1.1836    3.7912 H   0  0  0  0  0  0  0  0  0  0  0  0
   -2.8297   -1.6694    5.5907 H   0  0  0  0  0  0  0  0  0  0  0  0
   -5.0542   -2.2332    6.3633 H   0  0  0  0  0  0  0  0  0  0  0  0
   -5.9196   -1.3982    8.6018 H   0  0  0  0  0  0  0  0  0  0  0  0
   -4.3839    0.0457    9.9448 H   0  0  0  0  0  0  0  0  0  0  0  0
  1  2  1  0
  2  3  2  0
  2  4  1  0
  4  5  2  0
  5  6  1  0
  6  7  2  0
  7  8  1  0
  8  9  2  0
  9 10  1  0
 10 11  1  0
 11 12  2  0
 11 13  1  0
 13 14  1  0
 14 15  1  0
 15 16  1  0
 16 17  1  0
 17 18  1  0
 16 19  1  0
 19 20  2  0
 20 21  1  0
 21 22  2  0
 22 23  1  0
 23 24  2  0
 24 25  1  0
 25 26  1  0
 25 27  1  0
 25 28  1  0
  9  4  1  0
 18 13  1  0
 24 19  1  0
  1 29  1  0
  5 30  1  0
  6 31  1  0
  7 32  1  0
  8 33  1  0
 10 34  1  0
 14 35  1  0
 14 36  1  0
 15 37  1  0
 15 38  1  0
 16 39  1  0
 17 40  1  0
 17 41  1  0
 18 42  1  0
 18 43  1  0
 20 44  1  0
 21 45  1  0
 22 46  1  0
 23 47  1  0
M  END
>  <_MoleculeID>  (42) 
smi5

>  <_InputIndex>  (42) 
5

>  <_InputSMILES>  (42) 
OC(=O)c1ccccc1NC(=O)N1CCC(CC1)c1ccccc1C(F)(F)F

>  <_InputInChIKey>  (42) 
MEAQCLPMSVEOQF-UHFFFAOYSA-N

>  <_SMILES>  (42) 
O=C(O)c1ccccc1NC(=O)N1CCC(c2ccccc2C(F)(F)F)CC1

>  <_InChIKey>  (42) 
MEAQCLPMSVEOQF-UHFFFAOYSA-N

$$$$
smi5_conf3
     RDKit          3D

 47 49  0  0  0  0  0  0  0  0999 V2000
   -0.5395   -0.0006   -1.2513 O   0  0  0  0  0  0  0  0  0  0  0  0
    0.0000   -0.0000    0.0000 C   0  0  0  0  0  0  0  0  0  0  0  0
   -0.7012    0.0000    1.0055 O   0  0  0  0  0  0  0  0  0  0  0  0
    1.4570    0.0000    0.0000 C   0  0  0  0  0  0  0  0  0  0  0  0
    2.1681   -0.0195   -1.2025 C   0  0  0  0  0  0  0  0  0  0  0  0
    3.5708   -0.0186   -1.2108 C   0  0  0  0  0  0  0  0  0  0  0  0
    4.3190   -0.0013   -0.0236 C   0  0  0  0  0  0  0  0  0  0  0  0
    3.5696    0.0035    1.1688 C   0  0  0  0  0  0  0  0  0  0  0  0
    2.1684    0.0000    1.1992 C   0  0  0  0  0  0  0  0  0  0  0  0
    1.4823    0.0039    2.4138 N   0  0  0  0  0  0  0  0  0  0  0  0
    1.0764   -1.1304    3.1285 C   0  0  0  0  0  0  0  0  0  0  0  0
    1.2907   -2.2817    2.7455 O   0  0  0  0  0  0  0  0  0  0  0  0
    0.4257   -0.8268    4.2941 N   0  0  0  0  0  0  0  0  0  0  0  0
    0.2038    0.5610    4.6906 C   0  0  0  0  0  0  0  0  0  0  0  0
   -1.0563    0.7064    5.5379 C   0  0  0  0  0  0  0  0  0  0  0  0
   -1.0239   -0.1842    6.7932 C   0  0  0  0  0  0  0  0  0  0  0  0
   -0.1174   -1.4155    6.6253 C   0  0  0  0  0  0  0  0  0  0  0  0
   -0.0654   -1.8820    5.1754 C   0  0  0  0  0  0  0  0  0  0  0  0
   -0.6024    0.5913    7.9886 C   0  0  0  0  0  0  0  0  0  0  0  0
    0.6540    1.2008    8.0340 C   0  0  0  0  0  0  0  0  0  0  0  0
    1.0588    1.9354    9.1584 C   0  0  0  0  0  0  0  0  0  0  0  0
    0.2306    2.0888   10.2810 C   0  0  0  0  0  0  0  0  0  0  0  0
   -1.0218    1.4493   10.2061 C   0  0  0  0  0  0  0  0  0  0  0  0
   -1.4445    0.7087    9.0938 C   0  0  0  0  0  0  0  0  0  0  0  0
   -2.7798    0.0568    9.0790 C   0  0  0  0  0  0  0  0  0  0  0  0
   -2.7174   -1.2952    8.9239 F   0  0  0  0  0  0  0  0  0  0  0  0
   -3.5847    0.5017    8.0739 F   0  0  0  0  0  0  0  0  0  0  0  0
   -3.4706    0.2692   10.2328 F   0  0  0  0  0  0  0  0  0  0  0  0
    0.0736   -0.0013   -2.0146 H   0  0  0  0  0  0  0  0  0  0  0  0
    1.6384   -0.0390   -2.1521 H   0  0  0  0  0  0  0  0  0  0  0  0
    4.0596   -0.0397   -2.1817 H   0  0  0  0  0  0  0  0  0  0  0  0
    5.4009   -0.0009   -0.0237 H   0  0  0  0  0  0  0  0  0  0  0  0
    4.1084    0.0101    2.1155 H   0  0  0  0  0  0  0  0  0  0  0  0
    1.3962    0.9107    2.8621 H   0  0  0  0  0  0  0  0  0  0  0  0
    0.1421    1.1868    3.7931 H   0  0  0  0  0  0  0  0  0  0  0  0
    1.0876    0.8847    5.2529 H   0  0  0  0  0  0  0  0  0  0  0  0
   -1.9176    0.4068    4.9253 H   0  0  0  0  0  0  0  0  0  0  0  0
   -1.2151    1.7603    5.7961 H   0  0  0  0  0  0  0  0  0  0  0  0
   -2.0494   -0.5260    6.9836 H   0  0  0  0  0  0  0  0  0  0  0  0
   -0.4782   -2.2301    7.2651 H   0  0  0  0  0  0  0  0  0  0  0  0
    0.9055   -1.1890    6.9566 H   0  0  0  0  0  0  0  0  0  0  0  0
   -1.0657   -2.1615    4.8238 H   0  0  0  0  0  0  0  0  0  0  0  0
    0.5749   -2.7653    5.0727 H   0  0  0  0  0  0  0  0  0  0  0  0
    1.3382    1.1092    7.1937 H   0  0  0  0  0  0  0  0  0  0  0  0
    2.0511    2.3785    9.1286 H   0  0  0  0  0  0  0  0  0  0  0  0
    0.5375    2.6538   11.1511 H   0  0  0  0  0  0  0  0  0  0  0  0
   -1.6957    1.5355   11.0575 H   0  0  0  0  0  0  0  0  0  0  0  0
  1  2  1  0
  2  3  2  0
  2  4  1  0
  4  5  2  0
  5  6  1  0
  6  7  2  0
  7  8  1  0
  8  9  2  0
  9 10  1  0
 10 11  1  0
 11 12  2  0
 11 13  1  0
 13 14  1  0
 14 15  1  0
 15 16  1  0
 16 17  1  0
 17 18  1  0
 16 19  1  0
 19 20  2  0
 20 21  1  0
 21 22  2  0
 22 23  1  0
 23 24  2  0
 24 25  1  0
 25 26  1  0
 25 27  1  0
 25 28  1  0
  9  4  1  0
 18 13  1  0
 24 19  1  0
  1 29  1  0
  5 30  1  0
  6 31  1  0
  7 32  1  0
  8 33  1  0
 10 34  1  0
 14 35  1  0
 14 36  1  0
 15 37  1  0
 15 38  1  0
 16 39  1  0
 17 40  1  0
 17 41  1  0
 18 42  1  0
 18 43  1  0
 20 44  1  0
 21 45  1  0
 22 46  1  0
 23 47  1  0
M  END
>  <_MoleculeID>  (43) 
smi5

>  <_InputIndex>  (43) 
5

>  <_InputSMILES>  (43) 
OC(=O)c1ccccc1NC(=O)N1CCC(CC1)c1ccccc1C(F)(F)F

>  <_InputInChIKey>  (43) 
MEAQCLPMSVEOQF-UHFFFAOYSA-N

>  <_SMILES>  (43) 
O=C(O)c1ccccc1NC(=O)N1CCC(c2ccccc2C(F)(F)F)CC1

>  <_InChIKey>  (43) 
MEAQCLPMSVEOQF-UHFFFAOYSA-N

$$$$
smi5_conf4
     RDKit          3D

 47 49  0  0  0  0  0  0  0  0999 V2000
   -0.5395   -0.0006   -1.2513 O   0  0  0  0  0  0  0  0  0  0  0  0
    0.0000   -0.0000    0.0000 C   0  0  0  0  0  0  0  0  0  0  0  0
   -0.7012    0.0000    1.0055 O   0  0  0  0  0  0  0  0  0  0  0  0
    1.4570    0.0000    0.0000 C   0  0  0  0  0  0  0  0  0  0  0  0
    2.1681   -0.0195   -1.2025 C   0  0  0  0  0  0  0  0  0  0  0  0
    3.5708   -0.0186   -1.2108 C   0  0  0  0  0  0  0  0  0  0  0  0
    4.3190   -0.0013   -0.0236 C   0  0  0  0  0  0  0  0  0  0  0  0
    3.5696    0.0035    1.1688 C   0  0  0  0  0  0  0  0  0  0  0  0
    2.1684    0.0000    1.1992 C   0  0  0  0  0  0  0  0  0  0  0  0
    1.4823    0.0039    2.4138 N   0  0  0  0  0  0  0  0  0  0  0  0
    1.0828    1.1429    3.1248 C   0  0  0  0  0  0  0  0  0  0  0  0
    1.3034    2.2917    2.7379 O   0  0  0  0  0  0  0  0  0  0  0  0
    0.4195    0.8467    4.2852 N   0  0  0  0  0  0  0  0  0  0  0  0
   -0.0791    1.9070    5.1567 C   0  0  0  0  0  0  0  0  0  0  0  0
   -0.1206    1.4599    6.6146 C   0  0  0  0  0  0  0  0  0  0  0  0
   -0.9713    0.1926    6.8145 C   0  0  0  0  0  0  0  0  0  0  0  0
   -1.0616   -0.6693    5.5437 C   0  0  0  0  0  0  0  0  0  0  0  0
    0.1909   -0.5386    4.6853 C   0  0  0  0  0  0  0  0  0  0  0  0
   -2.3377    0.5346    7.2881 C   0  0  0  0  0  0  0  0  0  0  0  0
   -3.1679    1.3614    6.5271 C   0  0  0  0  0  0  0  0  0  0  0  0
   -4.4592    1.6879    6.9669 C   0  0  0  0  0  0  0  0  0  0  0  0
   -4.9724    1.2070    8.1814 C   0  0  0  0  0  0  0  0  0  0  0  0
   -4.1031    0.3889    8.9286 C   0  0  0  0  0  0  0  0  0  0  0  0
   -2.8088    0.0528    8.5089 C   0  0  0  0  0  0  0  0  0  0  0  0
   -1.9409   -0.8153    9.3463 C   0  0  0  0  0  0  0  0  0  0  0  0
   -0.7770   -0.2136    9.7196 F   0  0  0  0  0  0  0  0  0  0  0  0
   -1.5706   -1.9683    8.7223 F   0  0  0  0  0  0  0  0  0  0  0  0
   -2.5523   -1.1954   10.5018 F   0  0  0  0  0  0  0  0  0  0  0  0
    0.0736   -0.0013   -2.0146 H   0  0  0  0  0  0  0  0  0  0  0  0
    1.6384   -0.0390   -2.1521 H   0  0  0  0  0  0  0  0  0  0  0  0
    4.0596   -0.0397   -2.1817 H   0  0  0  0  0  0  0  0  0  0  0  0
    5.4009   -0.0009   -0.0237 H   0  0  0  0  0  0  0  0  0  0  0  0
    4.1084    0.0101    2.1155 H   0  0  0  0  0  0  0  0  0  0  0  0
    1.1402   -0.9004    2.7234 H   0  0  0  0  0  0  0  0  0  0  0  0
    0.5523    2.7952    5.0412 H   0  0  0  0  0  0  0  0  0  0  0  0
   -1.0828    2.1732    4.8049 H   0  0  0  0  0  0  0  0  0  0  0  0
    0.9068    1.2390    6.9346 H   0  0  0  0  0  0  0  0  0  0  0  0
   -0.4696    2.2833    7.2495 H   0  0  0  0  0  0  0  0  0  0  0  0
   -0.5007   -0.4006    7.6089 H   0  0  0  0  0  0  0  0  0  0  0  0
   -1.2149   -1.7198    5.8197 H   0  0  0  0  0  0  0  0  0  0  0  0
   -1.9315   -0.3758    4.9400 H   0  0  0  0  0  0  0  0  0  0  0  0
    1.0763   -0.8677    5.2421 H   0  0  0  0  0  0  0  0  0  0  0  0
    0.1170   -1.1656    3.7897 H   0  0  0  0  0  0  0  0  0  0  0  0
   -2.8186    1.7665    5.5801 H   0  0  0  0  0  0  0  0  0  0  0  0
   -5.0492    2.3402    6.3277 H   0  0  0  0  0  0  0  0  0  0  0  0
   -5.9673    1.4558    8.5260 H   0  0  0  0  0  0  0  0  0  0  0  0
   -4.4564   -0.0021    9.8820 H   0  0  0  0  0  0  0  0  0  0  0  0
  1  2  1  0
  2  3  2  0
  2  4  1  0
  4  5  2  0
  5  6  1  0
  6  7  2  0
  7  8  1  0
  8  9  2  0
  9 10  1  0
 10 11  1  0
 11 12  2  0
 11 13  1  0
 13 14  1  0
 14 15  1  0
 15 16  1  0
 16 17  1  0
 17 18  1  0
 16 19  1  0
 19 20  2  0
 20 21  1  0
 21 22  2  0
 22 23  1  0
 23 24  2  0
 24 25  1  0
 25 26  1  0
 25 27  1  0
 25 28  1  0
  9  4  1  0
 18 13  1  0
 24 19  1  0
  1 29  1  0
  5 30  1  0
  6 31  1  0
  7 32  1  0
  8 33  1  0
 10 34  1  0
 14 35  1  0
 14 36  1  0
 15 37  1  0
 15 38  1  0
 16 39  1  0
 17 40  1  0
 17 41  1  0
 18 42  1  0
 18 43  1  0
 20 44  1  0
 21 45  1  0
 22 46  1  0
 23 47  1  0
M  END
>  <_MoleculeID>  (44) 
smi5

>  <_InputIndex>  (44) 
5

>  <_InputSMILES>  (44) 
OC(=O)c1ccccc1NC(=O)N1CCC(CC1)c1ccccc1C(F)(F)F

>  <_InputInChIKey>  (44) 
MEAQCLPMSVEOQF-UHFFFAOYSA-N

>  <_SMILES>  (44) 
O=C(O)c1ccccc1NC(=O)N1CCC(c2ccccc2C(F)(F)F)CC1

>  <_InChIKey>  (44) 
MEAQCLPMSVEOQF-UHFFFAOYSA-N

$$$$
smi5_conf5
     RDKit          3D

 47 49  0  0  0  0  0  0  0  0999 V2000
   -0.5395   -0.0006   -1.2513 O   0  0  0  0  0  0  0  0  0  0  0  0
    0.0000   -0.0000    0.0000 C   0  0  0  0  0  0  0  0  0  0  0  0
   -0.7012    0.0000    1.0055 O   0  0  0  0  0  0  0  0  0  0  0  0
    1.4570    0.0000    0.0000 C   0  0  0  0  0  0  0  0  0  0  0  0
    2.1681   -0.0195   -1.2025 C   0  0  0  0  0  0  0  0  0  0  0  0
    3.5708   -0.0186   -1.2108 C   0  0  0  0  0  0  0  0  0  0  0  0
    4.3190   -0.0013   -0.0236 C   0  0  0  0  0  0  0  0  0  0  0  0
    3.5696    0.0035    1.1688 C   0  0  0  0  0  0  0  0  0  0  0  0
    2.1684    0.0000    1.1992 C   0  0  0  0  0  0  0  0  0  0  0  0
    1.4823    0.0039    2.4138 N   0  0  0  0  0  0  0  0  0  0  0  0
    1.0828    1.1429    3.1248 C   0  0  0  0  0  0  0  0  0  0  0  0
    1.3034    2.2917    2.7379 O   0  0  0  0  0  0  0  0  0  0  0  0
    0.4195    0.8467    4.2852 N   0  0  0  0  0  0  0  0  0  0  0  0
    0.1906   -0.5385    4.6867 C   0  0  0  0  0  0  0  0  0  0  0  0
   -1.0784   -0.6766    5.5219 C   0  0  0  0  0  0  0  0  0  0  0  0
   -1.0568    0.2205    6.7728 C   0  0  0  0  0  0  0  0  0  0  0  0
   -0.1459    1.4488    6.6076 C   0  0  0  0  0  0  0  0  0  0  0  0
   -0.0781    1.9077    5.1559 C   0  0  0  0  0  0  0  0  0  0  0  0
   -0.6491   -0.5497    7.9765 C   0  0  0  0  0  0  0  0  0  0  0  0
    0.5898   -1.1939    8.0225 C   0  0  0  0  0  0  0  0  0  0  0  0
    0.9823   -1.9220    9.1554 C   0  0  0  0  0  0  0  0  0  0  0  0
    0.1562   -2.0391   10.2840 C   0  0  0  0  0  0  0  0  0  0  0  0
   -1.0902   -1.3894   10.1967 C   0  0  0  0  0  0  0  0  0  0  0  0
   -1.5027   -0.6595    9.0736 C   0  0  0  0  0  0  0  0  0  0  0  0
   -2.8330    0.0021    9.0451 C   0  0  0  0  0  0  0  0  0  0  0  0
   -3.6309   -0.4362    8.0317 F   0  0  0  0  0  0  0  0  0  0  0  0
   -2.7586    1.3537    8.8912 F   0  0  0  0  0  0  0  0  0  0  0  0
   -3.5372   -0.2053   10.1917 F   0  0  0  0  0  0  0  0  0  0  0  0
    0.0736   -0.0013   -2.0146 H   0  0  0  0  0  0  0  0  0  0  0  0
    1.6384   -0.0390   -2.1521 H   0  0  0  0  0  0  0  0  0  0  0  0
    4.0596   -0.0397   -2.1817 H   0  0  0  0  0  0  0  0  0  0  0  0
    5.4009   -0.0009   -0.0237 H   0  0  0  0  0  0  0  0  0  0  0  0
    4.1084    0.0101    2.1155 H   0  0  0  0  0  0  0  0  0  0  0  0
    1.1402   -0.9004    2.7234 H   0  0  0  0  0  0  0  0  0  0  0  0
    0.1367   -1.1688    3.7919 H   0  0  0  0  0  0  0  0  0  0  0  0
    1.0679   -0.8611    5.2597 H   0  0  0  0  0  0  0  0  0  0  0  0
   -1.9327   -0.3784    4.8989 H   0  0  0  0  0  0  0  0  0  0  0  0
   -1.2421   -1.7289    5.7840 H   0  0  0  0  0  0  0  0  0  0  0  0
   -2.0834    0.5654    6.9510 H   0  0  0  0  0  0  0  0  0  0  0  0
   -0.5114    2.2676    7.2395 H   0  0  0  0  0  0  0  0  0  0  0  0
    0.8731    1.2219    6.9506 H   0  0  0  0  0  0  0  0  0  0  0  0
   -1.0742    2.1874    4.7927 H   0  0  0  0  0  0  0  0  0  0  0  0
    0.5652    2.7890    5.0552 H   0  0  0  0  0  0  0  0  0  0  0  0
    1.2671   -1.1406    7.1732 H   0  0  0  0  0  0  0  0  0  0  0  0
    1.9569   -2.4024    9.1214 H   0  0  0  0  0  0  0  0  0  0  0  0
    0.4533   -2.5995   11.1604 H   0  0  0  0  0  0  0  0  0  0  0  0
   -1.7676   -1.4587   11.0469 H   0  0  0  0  0  0  0  0  0  0  0  0
  1  2  1  0
  2  3  2  0
  2  4  1  0
  4  5  2  0
  5  6  1  0
  6  7  2  0
  7  8  1  0
  8  9  2  0
  9 10  1  0
 10 11  1  0
 11 12  2  0
 11 13  1  0
 13 14  1  0
 14 15  1  0
 15 16  1  0
 16 17  1  0
 17 18  1  0
 16 19  1  0
 19 20  2  0
 20 21  1  0
 21 22  2  0
 22 23  1  0
 23 24  2  0
 24 25  1  0
 25 26  1  0
 25 27  1  0
 25 28  1  0
  9  4  1  0
 18 13  1  0
 24 19  1  0
  1 29  1  0
  5 30  1  0
  6 31  1  0
  7 32  1  0
  8 33  1  0
 10 34  1  0
 14 35  1  0
 14 36  1  0
 15 37  1  0
 15 38  1  0
 16 39  1  0
 17 40  1  0
 17 41  1  0
 18 42  1  0
 18 43  1  0
 20 44  1  0
 21 45  1  0
 22 46  1  0
 23 47  1  0
M  END
>  <_MoleculeID>  (45) 
smi5

>  <_InputIndex>  (45) 
5

>  <_InputSMILES>  (45) 
OC(=O)c1ccccc1NC(=O)N1CCC(CC1)c1ccccc1C(F)(F)F

>  <_InputInChIKey>  (45) 
MEAQCLPMSVEOQF-UHFFFAOYSA-N

>  <_SMILES>  (45) 
O=C(O)c1ccccc1NC(=O)N1CCC(c2ccccc2C(F)(F)F)CC1

>  <_InChIKey>  (45) 
MEAQCLPMSVEOQF-UHFFFAOYSA-N

$$$$
smi5_conf6
     RDKit          3D

 47 49  0  0  0  0  0  0  0  0999 V2000
   -0.5395   -0.0006   -1.2513 O   0  0  0  0  0  0  0  0  0  0  0  0
    0.0000   -0.0000    0.0000 C   0  0  0  0  0  0  0  0  0  0  0  0
   -0.7012    0.0000    1.0055 O   0  0  0  0  0  0  0  0  0  0  0  0
    1.4570   -0.0000    0.0000 C   0  0  0  0  0  0  0  0  0  0  0  0
    2.1681    0.0195    1.2025 C   0  0  0  0  0  0  0  0  0  0  0  0
    3.5708    0.0186    1.2108 C   0  0  0  0  0  0  0  0  0  0  0  0
    4.3190    0.0013    0.0236 C   0  0  0  0  0  0  0  0  0  0  0  0
    3.5696   -0.0035   -1.1688 C   0  0  0  0  0  0  0  0  0  0  0  0
    2.1684   -0.0000   -1.1992 C   0  0  0  0  0  0  0  0  0  0  0  0
    1.4823   -0.0039   -2.4138 N   0  0  0  0  0  0  0  0  0  0  0  0
    1.0764    1.1304   -3.1285 C   0  0  0  0  0  0  0  0  0  0  0  0
    1.2907    2.2817   -2.7455 O   0  0  0  0  0  0  0  0  0  0  0  0
    0.4257    0.8268   -4.2941 N   0  0  0  0  0  0  0  0  0  0  0  0
    0.1477   -0.5266   -4.7912 C   0  0  0  0  0  0  0  0  0  0  0  0
   -1.3450   -0.7050   -5.0653 C   0  0  0  0  0  0  0  0  0  0  0  0
   -1.8725    0.3883   -6.0079 C   0  0  0  0  0  0  0  0  0  0  0  0
   -1.5254    1.7804   -5.4573 C   0  0  0  0  0  0  0  0  0  0  0  0
   -0.0297    1.9042   -5.1752 C   0  0  0  0  0  0  0  0  0  0  0  0
   -3.3383    0.2503   -6.2094 C   0  0  0  0  0  0  0  0  0  0  0  0
   -4.2141    0.3084   -5.1224 C   0  0  0  0  0  0  0  0  0  0  0  0
   -5.5990    0.1800   -5.3045 C   0  0  0  0  0  0  0  0  0  0  0  0
   -6.1648   -0.0139   -6.5742 C   0  0  0  0  0  0  0  0  0  0  0  0
   -5.2516   -0.0818   -7.6441 C   0  0  0  0  0  0  0  0  0  0  0  0
   -3.8647    0.0413   -7.4836 C   0  0  0  0  0  0  0  0  0  0  0  0
   -2.9548   -0.0410   -8.6556 C   0  0  0  0  0  0  0  0  0  0  0  0
   -2.0483   -1.0537   -8.5636 F   0  0  0  0  0  0  0  0  0  0  0  0
   -2.2193    1.0897   -8.8462 F   0  0  0  0  0  0  0  0  0  0  0  0
   -3.6300   -0.2483   -9.8195 F   0  0  0  0  0  0  0  0  0  0  0  0
    0.0736   -0.0013   -2.0146 H   0  0  0  0  0  0  0  0  0  0  0  0
    1.6384    0.0390    2.1521 H   0  0  0  0  0  0  0  0  0  0  0  0
    4.0596    0.0397    2.1817 H   0  0  0  0  0  0  0  0  0  0  0  0
    5.4009    0.0009    0.0237 H   0  0  0  0  0  0  0  0  0  0  0  0
    4.1084   -0.0101   -2.1155 H   0  0  0  0  0  0  0  0  0  0  0  0
    1.3962   -0.9107   -2.8621 H   0  0  0  0  0  0  0  0  0  0  0  0
    0.4806   -1.2984   -4.0958 H   0  0  0  0  0  0  0  0  0  0  0  0
    0.7230   -0.6561   -5.7156 H   0  0  0  0  0  0  0  0  0  0  0  0
   -1.8903   -0.6735   -4.1122 H   0  0  0  0  0  0  0  0  0  0  0  0
   -1.5229   -1.6971   -5.4982 H   0  0  0  0  0  0  0  0  0  0  0  0
   -1.3723    0.2714   -6.9792 H   0  0  0  0  0  0  0  0  0  0  0  0
   -2.0818    1.9653   -4.5284 H   0  0  0  0  0  0  0  0  0  0  0  0
   -1.8311    2.5575   -6.1686 H   0  0  0  0  0  0  0  0  0  0  0  0
    0.5444    1.8311   -6.1065 H   0  0  0  0  0  0  0  0  0  0  0  0
    0.1821    2.8846   -4.7374 H   0  0  0  0  0  0  0  0  0  0  0  0
   -3.8290    0.4515   -4.1154 H   0  0  0  0  0  0  0  0  0  0  0  0
   -6.2216    0.2295   -4.4146 H   0  0  0  0  0  0  0  0  0  0  0  0
   -7.2320   -0.1140   -6.7208 H   0  0  0  0  0  0  0  0  0  0  0  0
   -5.6450   -0.2382   -8.6477 H   0  0  0  0  0  0  0  0  0  0  0  0
  1  2  1  0
  2  3  2  0
  2  4  1  0
  4  5  2  0
  5  6  1  0
  6  7  2  0
  7  8  1  0
  8  9  2  0
  9 10  1  0
 10 11  1  0
 11 12  2  0
 11 13  1  0
 13 14  1  0
 14 15  1  0
 15 16  1  0
 16 17  1  0
 17 18  1  0
 16 19  1  0
 19 20  2  0
 20 21  1  0
 21 22  2  0
 22 23  1  0
 23 24  2  0
 24 25  1  0
 25 26  1  0
 25 27  1  0
 25 28  1  0
  9  4  1  0
 18 13  1  0
 24 19  1  0
  1 29  1  0
  5 30  1  0
  6 31  1  0
  7 32  1  0
  8 33  1  0
 10 34  1  0
 14 35  1  0
 14 36  1  0
 15 37  1  0
 15 38  1  0
 16 39  1  0
 17 40  1  0
 17 41  1  0
 18 42  1  0
 18 43  1  0
 20 44  1  0
 21 45  1  0
 22 46  1  0
 23 47  1  0
M  END
>  <_MoleculeID>  (46) 
smi5

>  <_InputIndex>  (46) 
5

>  <_InputSMILES>  (46) 
OC(=O)c1ccccc1NC(=O)N1CCC(CC1)c1ccccc1C(F)(F)F

>  <_InputInChIKey>  (46) 
MEAQCLPMSVEOQF-UHFFFAOYSA-N

>  <_SMILES>  (46) 
O=C(O)c1ccccc1NC(=O)N1CCC(c2ccccc2C(F)(F)F)CC1

>  <_InChIKey>  (46) 
MEAQCLPMSVEOQF-UHFFFAOYSA-N

$$$$
smi5_conf7
     RDKit          3D

 47 49  0  0  0  0  0  0  0  0999 V2000
   -0.5395   -0.0006   -1.2513 O   0  0  0  0  0  0  0  0  0  0  0  0
    0.0000   -0.0000    0.0000 C   0  0  0  0  0  0  0  0  0  0  0  0
   -0.7012    0.0000    1.0055 O   0  0  0  0  0  0  0  0  0  0  0  0
    1.4570    0.0000    0.0000 C   0  0  0  0  0  0  0  0  0  0  0  0
    2.1681   -0.0195   -1.2025 C   0  0  0  0  0  0  0  0  0  0  0  0
    3.5708   -0.0186   -1.2108 C   0  0  0  0  0  0  0  0  0  0  0  0
    4.3190   -0.0013   -0.0236 C   0  0  0  0  0  0  0  0  0  0  0  0
    3.5696    0.0035    1.1688 C   0  0  0  0  0  0  0  0  0  0  0  0
    2.1684    0.0000    1.1992 C   0  0  0  0  0  0  0  0  0  0  0  0
    1.4823    0.0039    2.4138 N   0  0  0  0  0  0  0  0  0  0  0  0
    1.0828    1.1429    3.1248 C   0  0  0  0  0  0  0  0  0  0  0  0
    1.3034    2.2917    2.7379 O   0  0  0  0  0  0  0  0  0  0  0  0
    0.4195    0.8467    4.2852 N   0  0  0  0  0  0  0  0  0  0  0  0
   -0.1234    1.8266    5.2344 C   0  0  0  0  0  0  0  0  0  0  0  0
    0.4205    1.5753    6.6401 C   0  0  0  0  0  0  0  0  0  0  0  0
    0.1696    0.1251    7.0831 C   0  0  0  0  0  0  0  0  0  0  0  0
    0.7271   -0.8555    6.0394 C   0  0  0  0  0  0  0  0  0  0  0  0
    0.1765   -0.5511    4.6479 C   0  0  0  0  0  0  0  0  0  0  0  0
    0.7667   -0.1300    8.4197 C   0  0  0  0  0  0  0  0  0  0  0  0
    2.1427    0.0042    8.6211 C   0  0  0  0  0  0  0  0  0  0  0  0
    2.7137   -0.2339    9.8801 C   0  0  0  0  0  0  0  0  0  0  0  0
    1.9383   -0.6173   10.9852 C   0  0  0  0  0  0  0  0  0  0  0  0
    0.5582   -0.7569   10.7419 C   0  0  0  0  0  0  0  0  0  0  0  0
   -0.0320   -0.5265    9.4917 C   0  0  0  0  0  0  0  0  0  0  0  0
   -1.4963   -0.6930    9.3015 C   0  0  0  0  0  0  0  0  0  0  0  0
   -1.8147   -1.6267    8.3620 F   0  0  0  0  0  0  0  0  0  0  0  0
   -2.1208    0.4508    8.9042 F   0  0  0  0  0  0  0  0  0  0  0  0
   -2.1241   -1.0837   10.4446 F   0  0  0  0  0  0  0  0  0  0  0  0
    0.0736   -0.0013   -2.0146 H   0  0  0  0  0  0  0  0  0  0  0  0
    1.6384   -0.0390   -2.1521 H   0  0  0  0  0  0  0  0  0  0  0  0
    4.0596   -0.0397   -2.1817 H   0  0  0  0  0  0  0  0  0  0  0  0
    5.4009   -0.0009   -0.0237 H   0  0  0  0  0  0  0  0  0  0  0  0
    4.1084    0.0101    2.1155 H   0  0  0  0  0  0  0  0  0  0  0  0
    1.1402   -0.9004    2.7234 H   0  0  0  0  0  0  0  0  0  0  0  0
    0.0994    2.8534    4.9405 H   0  0  0  0  0  0  0  0  0  0  0  0
   -1.2145    1.7179    5.2228 H   0  0  0  0  0  0  0  0  0  0  0  0
    1.4978    1.7896    6.6508 H   0  0  0  0  0  0  0  0  0  0  0  0
   -0.0473    2.2734    7.3452 H   0  0  0  0  0  0  0  0  0  0  0  0
   -0.9165   -0.0281    7.1489 H   0  0  0  0  0  0  0  0  0  0  0  0
    1.8233   -0.7912    6.0129 H   0  0  0  0  0  0  0  0  0  0  0  0
    0.4777   -1.8873    6.3160 H   0  0  0  0  0  0  0  0  0  0  0  0
   -0.9075   -0.7137    4.6195 H   0  0  0  0  0  0  0  0  0  0  0  0
    0.6275   -1.2298    3.9174 H   0  0  0  0  0  0  0  0  0  0  0  0
    2.7915    0.2937    7.7976 H   0  0  0  0  0  0  0  0  0  0  0  0
    3.7912   -0.1160    9.9647 H   0  0  0  0  0  0  0  0  0  0  0  0
    2.3731   -0.8027   11.9583 H   0  0  0  0  0  0  0  0  0  0  0  0
   -0.0825   -1.0596   11.5693 H   0  0  0  0  0  0  0  0  0  0  0  0
  1  2  1  0
  2  3  2  0
  2  4  1  0
  4  5  2  0
  5  6  1  0
  6  7  2  0
  7  8  1  0
  8  9  2  0
  9 10  1  0
 10 11  1  0
 11 12  2  0
 11 13  1  0
 13 14  1  0
 14 15  1  0
 15 16  1  0
 16 17  1  0
 17 18  1  0
 16 19  1  0
 19 20  2  0
 20 21  1  0
 21 22  2  0
 22 23  1  0
 23 24  2  0
 24 25  1  0
 25 26  1  0
 25 27  1  0
 25 28  1  0
  9  4  1  0
 18 13  1  0
 24 19  1  0
  1 29  1  0
  5 30  1  0
  6 31  1  0
  7 32  1  0
  8 33  1  0
 10 34  1  0
 14 35  1  0
 14 36  1  0
 15 37  1  0
 15 38  1  0
 16 39  1  0
 17 40  1  0
 17 41  1  0
 18 42  1  0
 18 43  1  0
 20 44  1  0
 21 45  1  0
 22 46  1  0
 23 47  1  0
M  END
>  <_MoleculeID>  (47) 
smi5

>  <_InputIndex>  (47) 
5

>  <_InputSMILES>  (47) 
OC(=O)c1ccccc1NC(=O)N1CCC(CC1)c1ccccc1C(F)(F)F

>  <_InputInChIKey>  (47) 
MEAQCLPMSVEOQF-UHFFFAOYSA-N

>  <_SMILES>  (47) 
O=C(O)c1ccccc1NC(=O)N1CCC(c2ccccc2C(F)(F)F)CC1

>  <_InChIKey>  (47) 
MEAQCLPMSVEOQF-UHFFFAOYSA-N

$$$$
smi5_conf8
     RDKit          3D

 47 49  0  0  0  0  0  0  0  0999 V2000
   -0.5395   -0.0006   -1.2513 O   0  0  0  0  0  0  0  0  0  0  0  0
    0.0000   -0.0000    0.0000 C   0  0  0  0  0  0  0  0  0  0  0  0
   -0.7012    0.0000    1.0055 O   0  0  0  0  0  0  0  0  0  0  0  0
    1.4570   -0.0000    0.0000 C   0  0  0  0  0  0  0  0  0  0  0  0
    2.1681    0.0195    1.2025 C   0  0  0  0  0  0  0  0  0  0  0  0
    3.5708    0.0186    1.2108 C   0  0  0  0  0  0  0  0  0  0  0  0
    4.3190    0.0013    0.0236 C   0  0  0  0  0  0  0  0  0  0  0  0
    3.5696   -0.0035   -1.1688 C   0  0  0  0  0  0  0  0  0  0  0  0
    2.1684   -0.0000   -1.1992 C   0  0  0  0  0  0  0  0  0  0  0  0
    1.4823   -0.0039   -2.4138 N   0  0  0  0  0  0  0  0  0  0  0  0
    1.0828   -1.1429   -3.1248 C   0  0  0  0  0  0  0  0  0  0  0  0
    1.3034   -2.2917   -2.7379 O   0  0  0  0  0  0  0  0  0  0  0  0
    0.4195   -0.8467   -4.2852 N   0  0  0  0  0  0  0  0  0  0  0  0
    0.1335    0.5034   -4.7865 C   0  0  0  0  0  0  0  0  0  0  0  0
   -1.3623    0.6771   -5.0464 C   0  0  0  0  0  0  0  0  0  0  0  0
   -1.8969   -0.4222   -5.9778 C   0  0  0  0  0  0  0  0  0  0  0  0
   -1.5412   -1.8107   -5.4235 C   0  0  0  0  0  0  0  0  0  0  0  0
   -0.0424   -1.9298   -5.1560 C   0  0  0  0  0  0  0  0  0  0  0  0
   -3.3650   -0.2885   -6.1651 C   0  0  0  0  0  0  0  0  0  0  0  0
   -4.2324   -0.3813   -5.0738 C   0  0  0  0  0  0  0  0  0  0  0  0
   -5.6193   -0.2551   -5.2424 C   0  0  0  0  0  0  0  0  0  0  0  0
   -6.1957   -0.0348   -6.5028 C   0  0  0  0  0  0  0  0  0  0  0  0
   -5.2929    0.0389   -7.5811 C   0  0  0  0  0  0  0  0  0  0  0  0
   -3.9047   -0.0872   -7.4350 C   0  0  0  0  0  0  0  0  0  0  0  0
   -3.0064   -0.0009   -8.6156 C   0  0  0  0  0  0  0  0  0  0  0  0
   -2.2615   -1.1250   -8.8089 F   0  0  0  0  0  0  0  0  0  0  0  0
   -2.1090    1.0210   -8.5353 F   0  0  0  0  0  0  0  0  0  0  0  0
   -3.6940    0.1958   -9.7740 F   0  0  0  0  0  0  0  0  0  0  0  0
    0.0736   -0.0013   -2.0146 H   0  0  0  0  0  0  0  0  0  0  0  0
    1.6384    0.0390    2.1521 H   0  0  0  0  0  0  0  0  0  0  0  0
    4.0596    0.0397    2.1817 H   0  0  0  0  0  0  0  0  0  0  0  0
    5.4009    0.0009    0.0237 H   0  0  0  0  0  0  0  0  0  0  0  0
    4.1084   -0.0101   -2.1155 H   0  0  0  0  0  0  0  0  0  0  0  0
    1.1402    0.9004   -2.7234 H   0  0  0  0  0  0  0  0  0  0  0  0
    0.4718    1.2795   -4.0985 H   0  0  0  0  0  0  0  0  0  0  0  0
    0.6992    0.6293   -5.7174 H   0  0  0  0  0  0  0  0  0  0  0  0
   -1.8977    0.6494   -4.0877 H   0  0  0  0  0  0  0  0  0  0  0  0
   -1.5468    1.6666   -5.4826 H   0  0  0  0  0  0  0  0  0  0  0  0
   -1.4068   -0.3094   -6.9548 H   0  0  0  0  0  0  0  0  0  0  0  0
   -2.0876   -1.9919   -4.4881 H   0  0  0  0  0  0  0  0  0  0  0  0
   -1.8523   -2.5921   -6.1276 H   0  0  0  0  0  0  0  0  0  0  0  0
    0.5220   -1.8603   -6.0935 H   0  0  0  0  0  0  0  0  0  0  0  0
    0.1760   -2.9074   -4.7153 H   0  0  0  0  0  0  0  0  0  0  0  0
   -3.8397   -0.5570   -4.0750 H   0  0  0  0  0  0  0  0  0  0  0  0
   -6.2358   -0.3430   -4.3512 H   0  0  0  0  0  0  0  0  0  0  0  0
   -7.2646    0.0630   -6.6390 H   0  0  0  0  0  0  0  0  0  0  0  0
   -5.6959    0.2022   -8.5799 H   0  0  0  0  0  0  0  0  0  0  0  0
  1  2  1  0
  2  3  2  0
  2  4  1  0
  4  5  2  0
  5  6  1  0
  6  7  2  0
  7  8  1  0
  8  9  2  0
  9 10  1  0
 10 11  1  0
 11 12  2  0
 11 13  1  0
 13 14  1  0
 14 15  1  0
 15 16  1  0
 16 17  1  0
 17 18  1  0
 16 19  1  0
 19 20  2  0
 20 21  1  0
 21 22  2  0
 22 23  1  0
 23 24  2  0
 24 25  1  0
 25 26  1  0
 25 27  1  0
 25 28  1  0
  9  4  1  0
 18 13  1  0
 24 19  1  0
  1 29  1  0
  5 30  1  0
  6 31  1  0
  7 32  1  0
  8 33  1  0
 10 34  1  0
 14 35  1  0
 14 36  1  0
 15 37  1  0
 15 38  1  0
 16 39  1  0
 17 40  1  0
 17 41  1  0
 18 42  1  0
 18 43  1  0
 20 44  1  0
 21 45  1  0
 22 46  1  0
 23 47  1  0
M  END
>  <_MoleculeID>  (48) 
smi5

>  <_InputIndex>  (48) 
5

>  <_InputSMILES>  (48) 
OC(=O)c1ccccc1NC(=O)N1CCC(CC1)c1ccccc1C(F)(F)F

>  <_InputInChIKey>  (48) 
MEAQCLPMSVEOQF-UHFFFAOYSA-N

>  <_SMILES>  (48) 
O=C(O)c1ccccc1NC(=O)N1CCC(c2ccccc2C(F)(F)F)CC1

>  <_InChIKey>  (48) 
MEAQCLPMSVEOQF-UHFFFAOYSA-N

$$$$
smi5_conf9
     RDKit          3D

 47 49  0  0  0  0  0  0  0  0999 V2000
   -0.5395   -0.0006   -1.2513 O   0  0  0  0  0  0  0  0  0  0  0  0
    0.0000   -0.0000    0.0000 C   0  0  0  0  0  0  0  0  0  0  0  0
   -0.7012    0.0000    1.0055 O   0  0  0  0  0  0  0  0  0  0  0  0
    1.4570    0.0000    0.0000 C   0  0  0  0  0  0  0  0  0  0  0  0
    2.1681   -0.0195   -1.2025 C   0  0  0  0  0  0  0  0  0  0  0  0
    3.5708   -0.0186   -1.2108 C   0  0  0  0  0  0  0  0  0  0  0  0
    4.3190   -0.0013   -0.0236 C   0  0  0  0  0  0  0  0  0  0  0  0
    3.5696    0.0035    1.1688 C   0  0  0  0  0  0  0  0  0  0  0  0
    2.1684    0.0000    1.1992 C   0  0  0  0  0  0  0  0  0  0  0  0
    1.4823    0.0039    2.4138 N   0  0  0  0  0  0  0  0  0  0  0  0
    2.0693    0.0044    3.6857 C   0  0  0  0  0  0  0  0  0  0  0  0
    3.2880    0.0013    3.8664 O   0  0  0  0  0  0  0  0  0  0  0  0
    1.1512    0.0148    4.7012 N   0  0  0  0  0  0  0  0  0  0  0  0
    1.4625    0.0238    6.1361 C   0  0  0  0  0  0  0  0  0  0  0  0
    0.7696   -1.1385    6.8461 C   0  0  0  0  0  0  0  0  0  0  0  0
   -0.7426   -1.1365    6.5718 C   0  0  0  0  0  0  0  0  0  0  0  0
   -1.0103   -1.1119    5.0588 C   0  0  0  0  0  0  0  0  0  0  0  0
   -0.2791    0.0493    4.3886 C   0  0  0  0  0  0  0  0  0  0  0  0
   -1.3961   -2.3113    7.2049 C   0  0  0  0  0  0  0  0  0  0  0  0
   -1.0334   -3.6099    6.8386 C   0  0  0  0  0  0  0  0  0  0  0  0
   -1.6449   -4.7240    7.4324 C   0  0  0  0  0  0  0  0  0  0  0  0
   -2.6422   -4.5885    8.4105 C   0  0  0  0  0  0  0  0  0  0  0  0
   -2.9925   -3.2660    8.7443 C   0  0  0  0  0  0  0  0  0  0  0  0
   -2.3961   -2.1395    8.1614 C   0  0  0  0  0  0  0  0  0  0  0  0
   -2.8131   -0.7694    8.5579 C   0  0  0  0  0  0  0  0  0  0  0  0
   -3.2968   -0.0319    7.5196 F   0  0  0  0  0  0  0  0  0  0  0  0
   -1.7986   -0.0303    9.0877 F   0  0  0  0  0  0  0  0  0  0  0  0
   -3.7974   -0.7813    9.4984 F   0  0  0  0  0  0  0  0  0  0  0  0
    0.0736   -0.0013   -2.0146 H   0  0  0  0  0  0  0  0  0  0  0  0
    1.6384   -0.0390   -2.1521 H   0  0  0  0  0  0  0  0  0  0  0  0
    4.0596   -0.0397   -2.1817 H   0  0  0  0  0  0  0  0  0  0  0  0
    5.4009   -0.0009   -0.0237 H   0  0  0  0  0  0  0  0  0  0  0  0
    4.1084    0.0101    2.1155 H   0  0  0  0  0  0  0  0  0  0  0  0
    0.4799    0.1507    2.3470 H   0  0  0  0  0  0  0  0  0  0  0  0
    2.5356   -0.0267    6.3261 H   0  0  0  0  0  0  0  0  0  0  0  0
    1.1090    0.9810    6.5377 H   0  0  0  0  0  0  0  0  0  0  0  0
    1.2119   -2.0831    6.5018 H   0  0  0  0  0  0  0  0  0  0  0  0
    0.9594   -1.0755    7.9247 H   0  0  0  0  0  0  0  0  0  0  0  0
   -1.1670   -0.2216    7.0080 H   0  0  0  0  0  0  0  0  0  0  0  0
   -0.6778   -2.0549    4.6041 H   0  0  0  0  0  0  0  0  0  0  0  0
   -2.0868   -1.0298    4.8646 H   0  0  0  0  0  0  0  0  0  0  0  0
   -0.6705    1.0085    4.7479 H   0  0  0  0  0  0  0  0  0  0  0  0
   -0.4451    0.0135    3.3074 H   0  0  0  0  0  0  0  0  0  0  0  0
   -0.2699   -3.7726    6.0814 H   0  0  0  0  0  0  0  0  0  0  0  0
   -1.3183   -5.7050    7.0964 H   0  0  0  0  0  0  0  0  0  0  0  0
   -3.1177   -5.4440    8.8716 H   0  0  0  0  0  0  0  0  0  0  0  0
   -3.7673   -3.1122    9.4943 H   0  0  0  0  0  0  0  0  0  0  0  0
  1  2  1  0
  2  3  2  0
  2  4  1  0
  4  5  2  0
  5  6  1  0
  6  7  2  0
  7  8  1  0
  8  9  2  0
  9 10  1  0
 10 11  1  0
 11 12  2  0
 11 13  1  0
 13 14  1  0
 14 15  1  0
 15 16  1  0
 16 17  1  0
 17 18  1  0
 16 19  1  0
 19 20  2  0
 20 21  1  0
 21 22  2  0
 22 23  1  0
 23 24  2  0
 24 25  1  0
 25 26  1  0
 25 27  1  0
 25 28  1  0
  9  4  1  0
 18 13  1  0
 24 19  1  0
  1 29  1  0
  5 30  1  0
  6 31  1  0
  7 32  1  0
  8 33  1  0
 10 34  1  0
 14 35  1  0
 14 36  1  0
 15 37  1  0
 15 38  1  0
 16 39  1  0
 17 40  1  0
 17 41  1  0
 18 42  1  0
 18 43  1  0
 20 44  1  0
 21 45  1  0
 22 46  1  0
 23 47  1  0
M  END
>  <_MoleculeID>  (49) 
smi5

>  <_InputIndex>  (49) 
5

>  <_InputSMILES>  (49) 
OC(=O)c1ccccc1NC(=O)N1CCC(CC1)c1ccccc1C(F)(F)F

>  <_InputInChIKey>  (49) 
MEAQCLPMSVEOQF-UHFFFAOYSA-N

>  <_SMILES>  (49) 
O=C(O)c1ccccc1NC(=O)N1CCC(c2ccccc2C(F)(F)F)CC1

>  <_InChIKey>  (49) 
MEAQCLPMSVEOQF-UHFFFAOYSA-N

$$$$
smi6_conf0
     RDKit          3D

 69 73  0  0  0  0  0  0  0  0999 V2000
    8.1117   -7.5072    0.4620 O   0  0  0  0  0  0  0  0  0  0  0  0
    6.9286   -8.0103    0.0101 C   0  0  0  0  0  0  0  0  0  0  0  0
    6.8797   -8.8133   -0.9148 O   0  0  0  0  0  0  0  0  0  0  0  0
    5.7709   -7.4989    0.7320 C   0  0  0  0  0  0  0  0  0  0  0  0
    5.8110   -7.3410    2.1196 C   0  0  0  0  0  0  0  0  0  0  0  0
    4.7010   -6.8483    2.8216 C   0  0  0  0  0  0  0  0  0  0  0  0
    4.8327   -6.7243    4.2673 C   0  0  0  0  0  0  0  0  0  0  0  0
    6.0502   -6.2547    4.6598 O   0  0  0  0  0  0  0  0  0  0  0  0
    3.9568   -7.0045    5.0778 O   0  0  0  0  0  0  0  0  0  0  0  0
    3.5084   -6.4970    2.1703 C   0  0  0  0  0  0  0  0  0  0  0  0
    3.4991   -6.6828    0.7744 C   0  0  0  0  0  0  0  0  0  0  0  0
    4.5958   -7.1760    0.0544 C   0  0  0  0  0  0  0  0  0  0  0  0
    4.5215   -7.3462   -1.3907 C   0  0  0  0  0  0  0  0  0  0  0  0
    3.3246   -7.8406   -1.8148 O   0  0  0  0  0  0  0  0  0  0  0  0
    5.4251   -7.0810   -2.1754 O   0  0  0  0  0  0  0  0  0  0  0  0
    2.3510   -5.9851    2.8923 C   0  0  0  0  0  0  0  0  0  0  0  0
    1.4997   -6.7671    3.3229 O   0  0  0  0  0  0  0  0  0  0  0  0
    2.2322   -4.5933    3.0707 N   0  0  0  0  0  0  0  0  0  0  0  0
    3.2514   -3.7263    2.5496 C   0  0  0  0  0  0  0  0  0  0  0  0
    2.9225   -3.0690    1.2581 C   0  0  0  0  0  0  0  0  0  0  0  0
    3.2491   -3.6811    0.0453 C   0  0  0  0  0  0  0  0  0  0  0  0
    2.9410   -3.0675   -1.1779 C   0  0  0  0  0  0  0  0  0  0  0  0
    2.2992   -1.8210   -1.2410 C   0  0  0  0  0  0  0  0  0  0  0  0
    1.9982   -1.2273    0.0000 C   0  0  0  0  0  0  0  0  0  0  0  0
    1.3760    0.0000    0.0000 O   0  0  0  0  0  0  0  0  0  0  0  0
    0.0000    0.0000    0.0000 C   0  0  0  0  0  0  0  0  0  0  0  0
   -0.7111    0.0000    1.2027 C   0  0  0  0  0  0  0  0  0  0  0  0
   -2.1138    0.0010    1.2110 C   0  0  0  0  0  0  0  0  0  0  0  0
   -2.8620   -0.0009    0.0236 C   0  0  0  0  0  0  0  0  0  0  0  0
   -2.1126   -0.0155   -1.1687 C   0  0  0  0  0  0  0  0  0  0  0  0
   -0.7114   -0.0194   -1.1991 C   0  0  0  0  0  0  0  0  0  0  0  0
    2.2996   -1.8218    1.2329 C   0  0  0  0  0  0  0  0  0  0  0  0
    1.1163   -3.9309    3.6856 C   0  0  2  0  0  0  0  0  0  0  0  0
    0.9930   -4.4036    5.1445 C   0  0  0  0  0  0  0  0  0  0  0  0
   -0.2334   -3.8527    5.8866 C   0  0  0  0  0  0  0  0  0  0  0  0
   -1.2375   -3.1055    5.0090 C   0  0  0  0  0  0  0  0  0  0  0  0
   -1.3754   -3.7339    3.6483 C   0  0  0  0  0  0  0  0  0  0  0  0
   -2.6262   -3.8572    3.0333 C   0  0  0  0  0  0  0  0  0  0  0  0
   -2.7231   -4.3870    1.7483 C   0  0  0  0  0  0  0  0  0  0  0  0
   -1.5725   -4.7781    1.0673 C   0  0  0  0  0  0  0  0  0  0  0  0
   -0.3191   -4.6463    1.6689 C   0  0  0  0  0  0  0  0  0  0  0  0
   -0.2064   -4.1349    2.9686 C   0  0  0  0  0  0  0  0  0  0  0  0
    8.0846   -6.8698    1.2046 H   0  0  0  0  0  0  0  0  0  0  0  0
    6.7083   -7.6032    2.6753 H   0  0  0  0  0  0  0  0  0  0  0  0
    6.7076   -6.0483    3.9643 H   0  0  0  0  0  0  0  0  0  0  0  0
    2.5918   -6.4297    0.2273 H   0  0  0  0  0  0  0  0  0  0  0  0
    2.6425   -8.0318   -1.1391 H   0  0  0  0  0  0  0  0  0  0  0  0
    4.2093   -4.2568    2.4887 H   0  0  0  0  0  0  0  0  0  0  0  0
    3.4133   -2.9307    3.2881 H   0  0  0  0  0  0  0  0  0  0  0  0
    3.7524   -4.6451    0.0360 H   0  0  0  0  0  0  0  0  0  0  0  0
    3.2284   -3.5969   -2.0829 H   0  0  0  0  0  0  0  0  0  0  0  0
    2.0594   -1.3428   -2.1814 H   0  0  0  0  0  0  0  0  0  0  0  0
   -0.1814   -0.0042    2.1525 H   0  0  0  0  0  0  0  0  0  0  0  0
   -2.6026   -0.0043    2.1820 H   0  0  0  0  0  0  0  0  0  0  0  0
   -3.9439   -0.0005    0.0237 H   0  0  0  0  0  0  0  0  0  0  0  0
   -2.6514   -0.0242   -2.1154 H   0  0  0  0  0  0  0  0  0  0  0  0
   -0.1765   -0.0317   -2.1459 H   0  0  0  0  0  0  0  0  0  0  0  0
    2.0479   -1.3233    2.1662 H   0  0  0  0  0  0  0  0  0  0  0  0
    1.3303   -2.8545    3.6706 H   0  0  0  0  0  0  0  0  0  0  0  0
    0.9314   -5.5014    5.1700 H   0  0  0  0  0  0  0  0  0  0  0  0
    1.9000   -4.1429    5.7052 H   0  0  0  0  0  0  0  0  0  0  0  0
    0.0896   -3.1926    6.7010 H   0  0  0  0  0  0  0  0  0  0  0  0
   -0.7428   -4.6953    6.3732 H   0  0  0  0  0  0  0  0  0  0  0  0
   -0.9112   -2.0666    4.8731 H   0  0  0  0  0  0  0  0  0  0  0  0
   -2.2045   -3.0692    5.5243 H   0  0  0  0  0  0  0  0  0  0  0  0
   -3.5285   -3.5374    3.5476 H   0  0  0  0  0  0  0  0  0  0  0  0
   -3.6950   -4.4852    1.2733 H   0  0  0  0  0  0  0  0  0  0  0  0
   -1.6494   -5.1809    0.0614 H   0  0  0  0  0  0  0  0  0  0  0  0
    0.5582   -4.9472    1.1034 H   0  0  0  0  0  0  0  0  0  0  0  0
  1  2  1  0
  2  3  2  0
  2  4  1  0
  4  5  2  0
  5  6  1  0
  6  7  1  0
  7  8  1  0
  7  9  2  0
  6 10  2  0
 10 11  1  0
 11 12  2  0
 12 13  1  0
 13 14  1  0
 13 15  2  0
 10 16  1  0
 16 17  2  0
 16 18  1  0
 18 19  1  0
 19 20  1  0
 20 21  2  0
 21 22  1  0
 22 23  2  0
 23 24  1  0
 24 25  1  0
 25 26  1  0
 26 27  2  0
 27 28  1  0
 28 29  2  0
 29 30  1  0
 30 31  2  0
 24 32  2  0
 33 18  1  0
 33 34  1  0
 34 35  1  0
 35 36  1  0
 36 37  1  0
 37 38  2  0
 38 39  1  0
 39 40  2  0
 40 41  1  0
 41 42  2  0
 12  4  1  0
 32 20  1  0
 42 33  1  0
 31 26  1  0
 42 37  1  0
  1 43  1  0
  5 44  1  0
  8 45  1  0
 11 46  1  0
 14 47  1  0
 19 48  1  0
 19 49  1  0
 21 50  1  0
 22 51  1  0
 23 52  1  0
 27 53  1  0
 28 54  1  0
 29 55  1  0
 30 56  1  0
 31 57  1  0
 32 58  1  0
 33 59  1  1
 34 60  1  0
 34 61  1  0
 35 62  1  0
 35 63  1  0
 36 64  1  0
 36 65  1  0
 38 66  1  0
 39 67  1  0
 40 68  1  0
 41 69  1  0
M  END
>  <_MoleculeID>  (50) 
smi6

>  <_InputIndex>  (50) 
6

>  <_InputSMILES>  (50) 
OC(=O)c1cc(C(O)=O)c(cc1C(O)=O)C(=O)N(Cc1cccc(Oc2ccccc2)c1)[C@H]1CCCc2ccccc12

>  <_InputInChIKey>  (50) 
VQGBOYBIENNKMI-LJAQVGFWSA-N

>  <_SMILES>  (50) 
O=C(O)c1cc(C(=O)O)c(C(=O)N(Cc2cccc(Oc3ccccc3)c2)[C@H]2CCCc3ccccc32)cc1C(=O)O

>  <_InChIKey>  (50) 
VQGBOYBIENNKMI-LJAQVGFWSA-N

$$$$
smi6_conf1
     RDKit          3D

 69 73  0  0  0  0  0  0  0  0999 V2000
    7.5776   -9.0102    0.6703 O   0  0  0  0  0  0  0  0  0  0  0  0
    6.9286   -8.0103    0.0101 C   0  0  0  0  0  0  0  0  0  0  0  0
    7.3085   -7.6055   -1.0828 O   0  0  0  0  0  0  0  0  0  0  0  0
    5.7709   -7.4989    0.7320 C   0  0  0  0  0  0  0  0  0  0  0  0
    5.8110   -7.3410    2.1196 C   0  0  0  0  0  0  0  0  0  0  0  0
    4.7010   -6.8483    2.8216 C   0  0  0  0  0  0  0  0  0  0  0  0
    4.8327   -6.7243    4.2673 C   0  0  0  0  0  0  0  0  0  0  0  0
    5.5103   -7.7595    4.8381 O   0  0  0  0  0  0  0  0  0  0  0  0
    4.3912   -5.7955    4.9345 O   0  0  0  0  0  0  0  0  0  0  0  0
    3.5084   -6.4970    2.1703 C   0  0  0  0  0  0  0  0  0  0  0  0
    3.4991   -6.6828    0.7744 C   0  0  0  0  0  0  0  0  0  0  0  0
    4.5958   -7.1760    0.0544 C   0  0  0  0  0  0  0  0  0  0  0  0
    4.5215   -7.3462   -1.3907 C   0  0  0  0  0  0  0  0  0  0  0  0
    3.8568   -6.3364   -2.0194 O   0  0  0  0  0  0  0  0  0  0  0  0
    4.9981   -8.2900   -2.0110 O   0  0  0  0  0  0  0  0  0  0  0  0
    2.3510   -5.9851    2.8923 C   0  0  0  0  0  0  0  0  0  0  0  0
    1.4997   -6.7671    3.3229 O   0  0  0  0  0  0  0  0  0  0  0  0
    2.2322   -4.5933    3.0707 N   0  0  0  0  0  0  0  0  0  0  0  0
    3.2514   -3.7263    2.5496 C   0  0  0  0  0  0  0  0  0  0  0  0
    2.9225   -3.0690    1.2581 C   0  0  0  0  0  0  0  0  0  0  0  0
    3.2491   -3.6811    0.0453 C   0  0  0  0  0  0  0  0  0  0  0  0
    2.9410   -3.0675   -1.1779 C   0  0  0  0  0  0  0  0  0  0  0  0
    2.2992   -1.8210   -1.2410 C   0  0  0  0  0  0  0  0  0  0  0  0
    1.9982   -1.2273    0.0000 C   0  0  0  0  0  0  0  0  0  0  0  0
    1.3760    0.0000    0.0000 O   0  0  0  0  0  0  0  0  0  0  0  0
    0.0000    0.0000    0.0000 C   0  0  0  0  0  0  0  0  0  0  0  0
   -0.7111    0.0000    1.2027 C   0  0  0  0  0  0  0  0  0  0  0  0
   -2.1138    0.0010    1.2110 C   0  0  0  0  0  0  0  0  0  0  0  0
   -2.8620   -0.0009    0.0236 C   0  0  0  0  0  0  0  0  0  0  0  0
   -2.1126   -0.0155   -1.1687 C   0  0  0  0  0  0  0  0  0  0  0  0
   -0.7114   -0.0194   -1.1991 C   0  0  0  0  0  0  0  0  0  0  0  0
    2.2996   -1.8218    1.2329 C   0  0  0  0  0  0  0  0  0  0  0  0
    1.1163   -3.9309    3.6856 C   0  0  2  0  0  0  0  0  0  0  0  0
    0.9930   -4.4036    5.1445 C   0  0  0  0  0  0  0  0  0  0  0  0
   -0.2334   -3.8527    5.8866 C   0  0  0  0  0  0  0  0  0  0  0  0
   -1.2375   -3.1055    5.0090 C   0  0  0  0  0  0  0  0  0  0  0  0
   -1.3754   -3.7339    3.6483 C   0  0  0  0  0  0  0  0  0  0  0  0
   -2.6262   -3.8572    3.0333 C   0  0  0  0  0  0  0  0  0  0  0  0
   -2.7231   -4.3870    1.7483 C   0  0  0  0  0  0  0  0  0  0  0  0
   -1.5725   -4.7781    1.0673 C   0  0  0  0  0  0  0  0  0  0  0  0
   -0.3191   -4.6463    1.6689 C   0  0  0  0  0  0  0  0  0  0  0  0
   -0.2064   -4.1349    2.9686 C   0  0  0  0  0  0  0  0  0  0  0  0
    7.2247   -9.2896    1.5397 H   0  0  0  0  0  0  0  0  0  0  0  0
    6.7083   -7.6032    2.6753 H   0  0  0  0  0  0  0  0  0  0  0  0
    5.8387   -8.4711    4.2514 H   0  0  0  0  0  0  0  0  0  0  0  0
    2.5918   -6.4297    0.2273 H   0  0  0  0  0  0  0  0  0  0  0  0
    3.4996   -5.6102   -1.4684 H   0  0  0  0  0  0  0  0  0  0  0  0
    4.2093   -4.2568    2.4887 H   0  0  0  0  0  0  0  0  0  0  0  0
    3.4133   -2.9307    3.2881 H   0  0  0  0  0  0  0  0  0  0  0  0
    3.7524   -4.6451    0.0360 H   0  0  0  0  0  0  0  0  0  0  0  0
    3.2284   -3.5969   -2.0829 H   0  0  0  0  0  0  0  0  0  0  0  0
    2.0594   -1.3428   -2.1814 H   0  0  0  0  0  0  0  0  0  0  0  0
   -0.1814   -0.0042    2.1525 H   0  0  0  0  0  0  0  0  0  0  0  0
   -2.6026   -0.0043    2.1820 H   0  0  0  0  0  0  0  0  0  0  0  0
   -3.9439   -0.0005    0.0237 H   0  0  0  0  0  0  0  0  0  0  0  0
   -2.6514   -0.0242   -2.1154 H   0  0  0  0  0  0  0  0  0  0  0  0
   -0.1765   -0.0317   -2.1459 H   0  0  0  0  0  0  0  0  0  0  0  0
    2.0479   -1.3233    2.1662 H   0  0  0  0  0  0  0  0  0  0  0  0
    1.3303   -2.8545    3.6706 H   0  0  0  0  0  0  0  0  0  0  0  0
    0.9314   -5.5014    5.1700 H   0  0  0  0  0  0  0  0  0  0  0  0
    1.9000   -4.1429    5.7052 H   0  0  0  0  0  0  0  0  0  0  0  0
    0.0896   -3.1926    6.7010 H   0  0  0  0  0  0  0  0  0  0  0  0
   -0.7428   -4.6953    6.3732 H   0  0  0  0  0  0  0  0  0  0  0  0
   -0.9112   -2.0666    4.8731 H   0  0  0  0  0  0  0  0  0  0  0  0
   -2.2045   -3.0692    5.5243 H   0  0  0  0  0  0  0  0  0  0  0  0
   -3.5285   -3.5374    3.5476 H   0  0  0  0  0  0  0  0  0  0  0  0
   -3.6950   -4.4852    1.2733 H   0  0  0  0  0  0  0  0  0  0  0  0
   -1.6494   -5.1809    0.0614 H   0  0  0  0  0  0  0  0  0  0  0  0
    0.5582   -4.9472    1.1034 H   0  0  0  0  0  0  0  0  0  0  0  0
  1  2  1  0
  2  3  2  0
  2  4  1  0
  4  5  2  0
  5  6  1  0
  6  7  1  0
  7  8  1  0
  7  9  2  0
  6 10  2  0
 10 11  1  0
 11 12  2  0
 12 13  1  0
 13 14  1  0
 13 15  2  0
 10 16  1  0
 16 17  2  0
 16 18  1  0
 18 19  1  0
 19 20  1  0
 20 21  2  0
 21 22  1  0
 22 23  2  0
 23 24  1  0
 24 25  1  0
 25 26  1  0
 26 27  2  0
 27 28  1  0
 28 29  2  0
 29 30  1  0
 30 31  2  0
 24 32  2  0
 33 18  1  0
 33 34  1  0
 34 35  1  0
 35 36  1  0
 36 37  1  0
 37 38  2  0
 38 39  1  0
 39 40  2  0
 40 41  1  0
 41 42  2  0
 12  4  1  0
 32 20  1  0
 42 33  1  0
 31 26  1  0
 42 37  1  0
  1 43  1  0
  5 44  1  0
  8 45  1  0
 11 46  1  0
 14 47  1  0
 19 48  1  0
 19 49  1  0
 21 50  1  0
 22 51  1  0
 23 52  1  0
 27 53  1  0
 28 54  1  0
 29 55  1  0
 30 56  1  0
 31 57  1  0
 32 58  1  0
 33 59  1  1
 34 60  1  0
 34 61  1  0
 35 62  1  0
 35 63  1  0
 36 64  1  0
 36 65  1  0
 38 66  1  0
 39 67  1  0
 40 68  1  0
 41 69  1  0
M  END
>  <_MoleculeID>  (51) 
smi6

>  <_InputIndex>  (51) 
6

>  <_InputSMILES>  (51) 
OC(=O)c1cc(C(O)=O)c(cc1C(O)=O)C(=O)N(Cc1cccc(Oc2ccccc2)c1)[C@H]1CCCc2ccccc12

>  <_InputInChIKey>  (51) 
VQGBOYBIENNKMI-LJAQVGFWSA-N

>  <_SMILES>  (51) 
O=C(O)c1cc(C(=O)O)c(C(=O)N(Cc2cccc(Oc3ccccc3)c2)[C@H]2CCCc3ccccc32)cc1C(=O)O

>  <_InChIKey>  (51) 
VQGBOYBIENNKMI-LJAQVGFWSA-N

$$$$
smi6_conf2
     RDKit          3D

 69 73  0  0  0  0  0  0  0  0999 V2000
    6.2856   -8.5222    2.5374 O   0  0  0  0  0  0  0  0  0  0  0  0
    5.8206   -8.6266    1.2608 C   0  0  0  0  0  0  0  0  0  0  0  0
    5.3015   -9.6563    0.8449 O   0  0  0  0  0  0  0  0  0  0  0  0
    6.0069   -7.4120    0.4779 C   0  0  0  0  0  0  0  0  0  0  0  0
    7.1751   -6.6563    0.6048 C   0  0  0  0  0  0  0  0  0  0  0  0
    7.3622   -5.4864   -0.1462 C   0  0  0  0  0  0  0  0  0  0  0  0
    8.6087   -4.7601    0.0579 C   0  0  0  0  0  0  0  0  0  0  0  0
    9.6936   -5.5749    0.1836 O   0  0  0  0  0  0  0  0  0  0  0  0
    8.7077   -3.5396    0.1153 O   0  0  0  0  0  0  0  0  0  0  0  0
    6.3934   -5.0226   -1.0495 C   0  0  0  0  0  0  0  0  0  0  0  0
    5.2234   -5.8010   -1.1408 C   0  0  0  0  0  0  0  0  0  0  0  0
    5.0154   -6.9711   -0.3978 C   0  0  0  0  0  0  0  0  0  0  0  0
    3.7805   -7.7316   -0.5376 C   0  0  0  0  0  0  0  0  0  0  0  0
    3.3361   -7.8074   -1.8236 O   0  0  0  0  0  0  0  0  0  0  0  0
    3.1760   -8.2634    0.3867 O   0  0  0  0  0  0  0  0  0  0  0  0
    6.5800   -3.8083   -1.8327 C   0  0  0  0  0  0  0  0  0  0  0  0
    7.1121   -3.8689   -2.9438 O   0  0  0  0  0  0  0  0  0  0  0  0
    6.1503   -2.5837   -1.2860 N   0  0  0  0  0  0  0  0  0  0  0  0
    5.5363   -2.5679    0.0121 C   0  0  0  0  0  0  0  0  0  0  0  0
    4.0521   -2.4964    0.0083 C   0  0  0  0  0  0  0  0  0  0  0  0
    3.2840   -3.6634   -0.0063 C   0  0  0  0  0  0  0  0  0  0  0  0
    1.8825   -3.6041   -0.0089 C   0  0  0  0  0  0  0  0  0  0  0  0
    1.1923   -2.3822   -0.0000 C   0  0  0  0  0  0  0  0  0  0  0  0
    1.9982   -1.2273    0.0000 C   0  0  0  0  0  0  0  0  0  0  0  0
    1.3760   -0.0000    0.0000 O   0  0  0  0  0  0  0  0  0  0  0  0
    0.0000    0.0000    0.0000 C   0  0  0  0  0  0  0  0  0  0  0  0
   -0.7111    0.0000    1.2027 C   0  0  0  0  0  0  0  0  0  0  0  0
   -2.1138    0.0010    1.2110 C   0  0  0  0  0  0  0  0  0  0  0  0
   -2.8620   -0.0009    0.0236 C   0  0  0  0  0  0  0  0  0  0  0  0
   -2.1126   -0.0155   -1.1687 C   0  0  0  0  0  0  0  0  0  0  0  0
   -0.7114   -0.0194   -1.1991 C   0  0  0  0  0  0  0  0  0  0  0  0
    3.3993   -1.2643   -0.0001 C   0  0  0  0  0  0  0  0  0  0  0  0
    6.3356   -1.2962   -1.8945 C   0  0  1  0  0  0  0  0  0  0  0  0
    7.8424   -1.0183   -2.0333 C   0  0  0  0  0  0  0  0  0  0  0  0
    8.1800    0.2840   -2.7739 C   0  0  0  0  0  0  0  0  0  0  0  0
    6.9890    0.9793   -3.4333 C   0  0  0  0  0  0  0  0  0  0  0  0
    6.0086   -0.0061   -4.0105 C   0  0  0  0  0  0  0  0  0  0  0  0
    5.3978    0.2237   -5.2483 C   0  0  0  0  0  0  0  0  0  0  0  0
    4.4482   -0.6721   -5.7352 C   0  0  0  0  0  0  0  0  0  0  0  0
    4.0928   -1.7886   -4.9817 C   0  0  0  0  0  0  0  0  0  0  0  0
    4.6882   -2.0183   -3.7395 C   0  0  0  0  0  0  0  0  0  0  0  0
    5.6600   -1.1384   -3.2451 C   0  0  0  0  0  0  0  0  0  0  0  0
    6.6894   -7.6730    2.8099 H   0  0  0  0  0  0  0  0  0  0  0  0
    7.9565   -6.9669    1.2946 H   0  0  0  0  0  0  0  0  0  0  0  0
    9.5494   -6.5417    0.1280 H   0  0  0  0  0  0  0  0  0  0  0  0
    4.4405   -5.4756   -1.8246 H   0  0  0  0  0  0  0  0  0  0  0  0
    3.8639   -7.3620   -2.5176 H   0  0  0  0  0  0  0  0  0  0  0  0
    5.9675   -1.7699    0.6285 H   0  0  0  0  0  0  0  0  0  0  0  0
    5.8163   -3.5008    0.5179 H   0  0  0  0  0  0  0  0  0  0  0  0
    3.7674   -4.6375   -0.0192 H   0  0  0  0  0  0  0  0  0  0  0  0
    1.3475   -4.5504   -0.0258 H   0  0  0  0  0  0  0  0  0  0  0  0
    0.1116   -2.3302   -0.0024 H   0  0  0  0  0  0  0  0  0  0  0  0
   -0.1814   -0.0042    2.1525 H   0  0  0  0  0  0  0  0  0  0  0  0
   -2.6026   -0.0043    2.1820 H   0  0  0  0  0  0  0  0  0  0  0  0
   -3.9439   -0.0005    0.0237 H   0  0  0  0  0  0  0  0  0  0  0  0
   -2.6514   -0.0242   -2.1154 H   0  0  0  0  0  0  0  0  0  0  0  0
   -0.1765   -0.0317   -2.1459 H   0  0  0  0  0  0  0  0  0  0  0  0
    3.9791   -0.3443   -0.0009 H   0  0  0  0  0  0  0  0  0  0  0  0
    5.8907   -0.5526   -1.2209 H   0  0  0  0  0  0  0  0  0  0  0  0
    8.3186   -1.8448   -2.5807 H   0  0  0  0  0  0  0  0  0  0  0  0
    8.3176   -1.0032   -1.0439 H   0  0  0  0  0  0  0  0  0  0  0  0
    8.6685    0.9866   -2.0876 H   0  0  0  0  0  0  0  0  0  0  0  0
    8.9289    0.0529   -3.5433 H   0  0  0  0  0  0  0  0  0  0  0  0
    6.4600    1.5923   -2.6927 H   0  0  0  0  0  0  0  0  0  0  0  0
    7.3582    1.6639   -4.2060 H   0  0  0  0  0  0  0  0  0  0  0  0
    5.6532    1.1015   -5.8357 H   0  0  0  0  0  0  0  0  0  0  0  0
    3.9772   -0.4943   -6.6976 H   0  0  0  0  0  0  0  0  0  0  0  0
    3.3444   -2.4800   -5.3583 H   0  0  0  0  0  0  0  0  0  0  0  0
    4.3764   -2.8906   -3.1719 H   0  0  0  0  0  0  0  0  0  0  0  0
  1  2  1  0
  2  3  2  0
  2  4  1  0
  4  5  2  0
  5  6  1  0
  6  7  1  0
  7  8  1  0
  7  9  2  0
  6 10  2  0
 10 11  1  0
 11 12  2  0
 12 13  1  0
 13 14  1  0
 13 15  2  0
 10 16  1  0
 16 17  2  0
 16 18  1  0
 18 19  1  0
 19 20  1  0
 20 21  2  0
 21 22  1  0
 22 23  2  0
 23 24  1  0
 24 25  1  0
 25 26  1  0
 26 27  2  0
 27 28  1  0
 28 29  2  0
 29 30  1  0
 30 31  2  0
 24 32  2  0
 33 18  1  0
 33 34  1  0
 34 35  1  0
 35 36  1  0
 36 37  1  0
 37 38  2  0
 38 39  1  0
 39 40  2  0
 40 41  1  0
 41 42  2  0
 12  4  1  0
 32 20  1  0
 42 33  1  0
 31 26  1  0
 42 37  1  0
  1 43  1  0
  5 44  1  0
  8 45  1  0
 11 46  1  0
 14 47  1  0
 19 48  1  0
 19 49  1  0
 21 50  1  0
 22 51  1  0
 23 52  1  0
 27 53  1  0
 28 54  1  0
 29 55  1  0
 30 56  1  0
 31 57  1  0
 32 58  1  0
 33 59  1  1
 34 60  1  0
 34 61  1  0
 35 62  1  0
 35 63  1  0
 36 64  1  0
 36 65  1  0
 38 66  1  0
 39 67  1  0
 40 68  1  0
 41 69  1  0
M  END
>  <_MoleculeID>  (52) 
smi6

>  <_InputIndex>  (52) 
6

>  <_InputSMILES>  (52) 
OC(=O)c1cc(C(O)=O)c(cc1C(O)=O)C(=O)N(Cc1cccc(Oc2ccccc2)c1)[C@H]1CCCc2ccccc12

>  <_InputInChIKey>  (52) 
VQGBOYBIENNKMI-LJAQVGFWSA-N

>  <_SMILES>  (52) 
O=C(O)c1cc(C(=O)O)c(C(=O)N(Cc2cccc(Oc3ccccc3)c2)[C@H]2CCCc3ccccc32)cc1C(=O)O

>  <_InChIKey>  (52) 
VQGBOYBIENNKMI-LJAQVGFWSA-N

$$$$
smi6_conf3
     RDKit          3D

 69 73  0  0  0  0  0  0  0  0999 V2000
    4.9779  -10.3281   -0.6703 O   0  0  0  0  0  0  0  0  0  0  0  0
    4.5550   -9.2136   -0.0101 C   0  0  0  0  0  0  0  0  0  0  0  0
    4.0039   -9.2807    1.0828 O   0  0  0  0  0  0  0  0  0  0  0  0
    4.8268   -7.9775   -0.7320 C   0  0  0  0  0  0  0  0  0  0  0  0
    4.6757   -7.9165   -2.1196 C   0  0  0  0  0  0  0  0  0  0  0  0
    4.9345   -6.7299   -2.8216 C   0  0  0  0  0  0  0  0  0  0  0  0
    4.7565   -6.7629   -4.2673 C   0  0  0  0  0  0  0  0  0  0  0  0
    5.1910   -7.9214   -4.8381 O   0  0  0  0  0  0  0  0  0  0  0  0
    4.2683   -5.8578   -4.9345 O   0  0  0  0  0  0  0  0  0  0  0  0
    5.3560   -5.5604   -2.1703 C   0  0  0  0  0  0  0  0  0  0  0  0
    5.5114   -5.6627   -0.7744 C   0  0  0  0  0  0  0  0  0  0  0  0
    5.2609   -6.8388   -0.0544 C   0  0  0  0  0  0  0  0  0  0  0  0
    5.4422   -6.8795    1.3907 C   0  0  0  0  0  0  0  0  0  0  0  0
    6.5484   -6.2063    1.8148 O   0  0  0  0  0  0  0  0  0  0  0  0
    4.6941   -7.4516    2.1754 O   0  0  0  0  0  0  0  0  0  0  0  0
    5.6273   -4.3242   -2.8923 C   0  0  0  0  0  0  0  0  0  0  0  0
    6.7612   -4.0998   -3.3229 O   0  0  0  0  0  0  0  0  0  0  0  0
    4.5748   -3.4057   -3.0707 N   0  0  0  0  0  0  0  0  0  0  0  0
    3.2730   -3.7153   -2.5496 C   0  0  0  0  0  0  0  0  0  0  0  0
    2.9374   -3.0615   -1.2581 C   0  0  0  0  0  0  0  0  0  0  0  0
    3.2379   -3.6867   -0.0453 C   0  0  0  0  0  0  0  0  0  0  0  0
    2.9252   -3.0756    1.1779 C   0  0  0  0  0  0  0  0  0  0  0  0
    2.2992   -1.8210    1.2410 C   0  0  0  0  0  0  0  0  0  0  0  0
    1.9982   -1.2273   -0.0000 C   0  0  0  0  0  0  0  0  0  0  0  0
    1.3760    0.0000    0.0000 O   0  0  0  0  0  0  0  0  0  0  0  0
    0.0000    0.0000    0.0000 C   0  0  0  0  0  0  0  0  0  0  0  0
   -0.7111    0.0000    1.2027 C   0  0  0  0  0  0  0  0  0  0  0  0
   -2.1138    0.0010    1.2110 C   0  0  0  0  0  0  0  0  0  0  0  0
   -2.8620   -0.0009    0.0236 C   0  0  0  0  0  0  0  0  0  0  0  0
   -2.1126   -0.0155   -1.1687 C   0  0  0  0  0  0  0  0  0  0  0  0
   -0.7114   -0.0194   -1.1991 C   0  0  0  0  0  0  0  0  0  0  0  0
    2.2995   -1.8219   -1.2329 C   0  0  0  0  0  0  0  0  0  0  0  0
    4.7002   -2.1141   -3.6856 C   0  0  2  0  0  0  0  0  0  0  0  0
    5.1544   -2.2941   -5.1445 C   0  0  0  0  0  0  0  0  0  0  0  0
    5.4350   -0.9792   -5.8866 C   0  0  0  0  0  0  0  0  0  0  0  0
    5.4257    0.2724   -5.0090 C   0  0  0  0  0  0  0  0  0  0  0  0
    6.0141    0.0122   -3.6483 C   0  0  0  0  0  0  0  0  0  0  0  0
    6.8529    0.9482   -3.0333 C   0  0  0  0  0  0  0  0  0  0  0  0
    7.3375    0.7132   -1.7483 C   0  0  0  0  0  0  0  0  0  0  0  0
    6.9729   -0.4461   -1.0673 C   0  0  0  0  0  0  0  0  0  0  0  0
    6.1257   -1.3791   -1.6689 C   0  0  0  0  0  0  0  0  0  0  0  0
    5.6465   -1.1678   -2.9686 C   0  0  0  0  0  0  0  0  0  0  0  0
    5.4118  -10.2086   -1.5397 H   0  0  0  0  0  0  0  0  0  0  0  0
    4.3568   -8.7953   -2.6753 H   0  0  0  0  0  0  0  0  0  0  0  0
    5.5709   -8.6069   -4.2514 H   0  0  0  0  0  0  0  0  0  0  0  0
    5.8436   -4.7812   -0.2273 H   0  0  0  0  0  0  0  0  0  0  0  0
    7.1059   -5.7692    1.1391 H   0  0  0  0  0  0  0  0  0  0  0  0
    3.1348   -4.8015   -2.4887 H   0  0  0  0  0  0  0  0  0  0  0  0
    2.5357   -3.3757   -3.2881 H   0  0  0  0  0  0  0  0  0  0  0  0
    3.7181   -4.6625   -0.0360 H   0  0  0  0  0  0  0  0  0  0  0  0
    3.1823   -3.6203    2.0829 H   0  0  0  0  0  0  0  0  0  0  0  0
    2.0552   -1.3450    2.1814 H   0  0  0  0  0  0  0  0  0  0  0  0
   -0.1814   -0.0042    2.1525 H   0  0  0  0  0  0  0  0  0  0  0  0
   -2.6026   -0.0043    2.1820 H   0  0  0  0  0  0  0  0  0  0  0  0
   -3.9439   -0.0005    0.0237 H   0  0  0  0  0  0  0  0  0  0  0  0
   -2.6514   -0.0242   -2.1154 H   0  0  0  0  0  0  0  0  0  0  0  0
   -0.1765   -0.0317   -2.1459 H   0  0  0  0  0  0  0  0  0  0  0  0
    2.0462   -1.3242   -2.1662 H   0  0  0  0  0  0  0  0  0  0  0  0
    3.7054   -1.6504   -3.6706 H   0  0  0  0  0  0  0  0  0  0  0  0
    6.0762   -2.8933   -5.1700 H   0  0  0  0  0  0  0  0  0  0  0  0
    4.4079   -2.8715   -5.7052 H   0  0  0  0  0  0  0  0  0  0  0  0
    4.7116   -0.8496   -6.7010 H   0  0  0  0  0  0  0  0  0  0  0  0
    6.4157   -1.0664   -6.3732 H   0  0  0  0  0  0  0  0  0  0  0  0
    4.3949    0.6232   -4.8731 H   0  0  0  0  0  0  0  0  0  0  0  0
    5.9680    1.0739   -5.5243 H   0  0  0  0  0  0  0  0  0  0  0  0
    7.1283    1.8650   -3.5476 H   0  0  0  0  0  0  0  0  0  0  0  0
    7.9912    1.4390   -1.2733 H   0  0  0  0  0  0  0  0  0  0  0  0
    7.3432   -0.6222   -0.0614 H   0  0  0  0  0  0  0  0  0  0  0  0
    5.8498   -2.2646   -1.1034 H   0  0  0  0  0  0  0  0  0  0  0  0
  1  2  1  0
  2  3  2  0
  2  4  1  0
  4  5  2  0
  5  6  1  0
  6  7  1  0
  7  8  1  0
  7  9  2  0
  6 10  2  0
 10 11  1  0
 11 12  2  0
 12 13  1  0
 13 14  1  0
 13 15  2  0
 10 16  1  0
 16 17  2  0
 16 18  1  0
 18 19  1  0
 19 20  1  0
 20 21  2  0
 21 22  1  0
 22 23  2  0
 23 24  1  0
 24 25  1  0
 25 26  1  0
 26 27  2  0
 27 28  1  0
 28 29  2  0
 29 30  1  0
 30 31  2  0
 24 32  2  0
 33 18  1  0
 33 34  1  0
 34 35  1  0
 35 36  1  0
 36 37  1  0
 37 38  2  0
 38 39  1  0
 39 40  2  0
 40 41  1  0
 41 42  2  0
 12  4  1  0
 32 20  1  0
 42 33  1  0
 31 26  1  0
 42 37  1  0
  1 43  1  0
  5 44  1  0
  8 45  1  0
 11 46  1  0
 14 47  1  0
 19 48  1  0
 19 49  1  0
 21 50  1  0
 22 51  1  0
 23 52  1  0
 27 53  1  0
 28 54  1  0
 29 55  1  0
 30 56  1  0
 31 57  1  0
 32 58  1  0
 33 59  1  6
 34 60  1  0
 34 61  1  0
 35 62  1  0
 35 63  1  0
 36 64  1  0
 36 65  1  0
 38 66  1  0
 39 67  1  0
 40 68  1  0
 41 69  1  0
M  END
>  <_MoleculeID>  (53) 
smi6

>  <_InputIndex>  (53) 
6

>  <_InputSMILES>  (53) 
OC(=O)c1cc(C(O)=O)c(cc1C(O)=O)C(=O)N(Cc1cccc(Oc2ccccc2)c1)[C@H]1CCCc2ccccc12

>  <_InputInChIKey>  (53) 
VQGBOYBIENNKMI-LJAQVGFWSA-N

>  <_SMILES>  (53) 
O=C(O)c1cc(C(=O)O)c(C(=O)N(Cc2cccc(Oc3ccccc3)c2)[C@H]2CCCc3ccccc32)cc1C(=O)O

>  <_InChIKey>  (53) 
VQGBOYBIENNKMI-LJAQVGFWSA-N

$$$$
smi6_conf4
     RDKit          3D

 69 73  0  0  0  0  0  0  0  0999 V2000
    5.6540  -10.0427   -1.3535 O   0  0  0  0  0  0  0  0  0  0  0  0
    5.7070   -8.6842   -1.2608 C   0  0  0  0  0  0  0  0  0  0  0  0
    6.5980   -8.0347   -1.7965 O   0  0  0  0  0  0  0  0  0  0  0  0
    4.6173   -8.1165   -0.4779 C   0  0  0  0  0  0  0  0  0  0  0  0
    3.3171   -8.6121   -0.6048 C   0  0  0  0  0  0  0  0  0  0  0  0
    2.2629   -8.0715    0.1462 C   0  0  0  0  0  0  0  0  0  0  0  0
    0.9403   -8.6476   -0.0579 C   0  0  0  0  0  0  0  0  0  0  0  0
    0.9562  -10.0043   -0.1836 O   0  0  0  0  0  0  0  0  0  0  0  0
   -0.1027   -8.0060   -0.1153 O   0  0  0  0  0  0  0  0  0  0  0  0
    2.4614   -7.0159    1.0495 C   0  0  0  0  0  0  0  0  0  0  0  0
    3.7809   -6.5323    1.1408 C   0  0  0  0  0  0  0  0  0  0  0  0
    4.8477   -7.0561    0.3978 C   0  0  0  0  0  0  0  0  0  0  0  0
    6.1910   -6.5096    0.5376 C   0  0  0  0  0  0  0  0  0  0  0  0
    6.2129   -5.1508    0.6386 O   0  0  0  0  0  0  0  0  0  0  0  0
    7.2197   -7.1757    0.5659 O   0  0  0  0  0  0  0  0  0  0  0  0
    1.3717   -6.4486    1.8327 C   0  0  0  0  0  0  0  0  0  0  0  0
    1.1060   -6.9137    2.9438 O   0  0  0  0  0  0  0  0  0  0  0  0
    0.6379   -5.3781    1.2860 N   0  0  0  0  0  0  0  0  0  0  0  0
    0.9881   -4.8736   -0.0121 C   0  0  0  0  0  0  0  0  0  0  0  0
    1.8078   -3.6341   -0.0083 C   0  0  0  0  0  0  0  0  0  0  0  0
    3.2031   -3.7044    0.0063 C   0  0  0  0  0  0  0  0  0  0  0  0
    3.9837   -2.5389    0.0089 C   0  0  0  0  0  0  0  0  0  0  0  0
    3.4061   -1.2599   -0.0000 C   0  0  0  0  0  0  0  0  0  0  0  0
    1.9982   -1.2273    0.0000 C   0  0  0  0  0  0  0  0  0  0  0  0
    1.3760    0.0000    0.0000 O   0  0  0  0  0  0  0  0  0  0  0  0
    0.0000    0.0000    0.0000 C   0  0  0  0  0  0  0  0  0  0  0  0
   -0.7111    0.0000    1.2027 C   0  0  0  0  0  0  0  0  0  0  0  0
   -2.1138    0.0010    1.2110 C   0  0  0  0  0  0  0  0  0  0  0  0
   -2.8620   -0.0009    0.0236 C   0  0  0  0  0  0  0  0  0  0  0  0
   -2.1126   -0.0155   -1.1687 C   0  0  0  0  0  0  0  0  0  0  0  0
   -0.7114   -0.0194   -1.1991 C   0  0  0  0  0  0  0  0  0  0  0  0
    1.1999   -2.3793    0.0001 C   0  0  0  0  0  0  0  0  0  0  0  0
   -0.5100   -4.7666    1.8945 C   0  0  1  0  0  0  0  0  0  0  0  0
   -1.6249   -5.8177    2.0333 C   0  0  0  0  0  0  0  0  0  0  0  0
   -2.8749   -5.3202    2.7739 C   0  0  0  0  0  0  0  0  0  0  0  0
   -2.7317   -3.9486    3.4333 C   0  0  0  0  0  0  0  0  0  0  0  0
   -1.3574   -3.7403    4.0105 C   0  0  0  0  0  0  0  0  0  0  0  0
   -1.1817   -3.1118    5.2483 C   0  0  0  0  0  0  0  0  0  0  0  0
    0.1021   -2.8753    5.7352 C   0  0  0  0  0  0  0  0  0  0  0  0
    1.2128   -3.2486    4.9817 C   0  0  0  0  0  0  0  0  0  0  0  0
    1.0461   -3.8646    3.7395 C   0  0  0  0  0  0  0  0  0  0  0  0
   -0.2381   -4.1284    3.2451 C   0  0  0  0  0  0  0  0  0  0  0  0
    4.9169  -10.5042   -0.9040 H   0  0  0  0  0  0  0  0  0  0  0  0
    3.1058   -9.4259   -1.2946 H   0  0  0  0  0  0  0  0  0  0  0  0
    1.8212  -10.4594   -0.1280 H   0  0  0  0  0  0  0  0  0  0  0  0
    3.9812   -5.7084    1.8246 H   0  0  0  0  0  0  0  0  0  0  0  0
    5.3575   -4.6755    0.6100 H   0  0  0  0  0  0  0  0  0  0  0  0
    0.0896   -4.7497   -0.6285 H   0  0  0  0  0  0  0  0  0  0  0  0
    1.5751   -5.6509   -0.5179 H   0  0  0  0  0  0  0  0  0  0  0  0
    3.7031   -4.6701    0.0192 H   0  0  0  0  0  0  0  0  0  0  0  0
    5.0632   -2.6668    0.0258 H   0  0  0  0  0  0  0  0  0  0  0  0
    4.0029   -0.3576    0.0024 H   0  0  0  0  0  0  0  0  0  0  0  0
   -0.1814   -0.0042    2.1525 H   0  0  0  0  0  0  0  0  0  0  0  0
   -2.6026   -0.0043    2.1820 H   0  0  0  0  0  0  0  0  0  0  0  0
   -3.9439   -0.0005    0.0237 H   0  0  0  0  0  0  0  0  0  0  0  0
   -2.6514   -0.0242   -2.1154 H   0  0  0  0  0  0  0  0  0  0  0  0
   -0.1765   -0.0317   -2.1459 H   0  0  0  0  0  0  0  0  0  0  0  0
    0.1150   -2.3032    0.0009 H   0  0  0  0  0  0  0  0  0  0  0  0
   -0.8469   -3.9682    1.2209 H   0  0  0  0  0  0  0  0  0  0  0  0
   -1.2397   -6.6903    2.5807 H   0  0  0  0  0  0  0  0  0  0  0  0
   -1.9180   -6.1921    1.0439 H   0  0  0  0  0  0  0  0  0  0  0  0
   -3.7304   -5.2989    2.0876 H   0  0  0  0  0  0  0  0  0  0  0  0
   -3.1312   -6.0609    3.5433 H   0  0  0  0  0  0  0  0  0  0  0  0
   -2.9135   -3.1595    2.6927 H   0  0  0  0  0  0  0  0  0  0  0  0
   -3.5022   -3.8417    4.2060 H   0  0  0  0  0  0  0  0  0  0  0  0
   -2.0407   -2.7990    5.8357 H   0  0  0  0  0  0  0  0  0  0  0  0
    0.2371   -2.3904    6.6976 H   0  0  0  0  0  0  0  0  0  0  0  0
    2.2129   -3.0536    5.3583 H   0  0  0  0  0  0  0  0  0  0  0  0
    1.9340   -4.1288    3.1719 H   0  0  0  0  0  0  0  0  0  0  0  0
  1  2  1  0
  2  3  2  0
  2  4  1  0
  4  5  2  0
  5  6  1  0
  6  7  1  0
  7  8  1  0
  7  9  2  0
  6 10  2  0
 10 11  1  0
 11 12  2  0
 12 13  1  0
 13 14  1  0
 13 15  2  0
 10 16  1  0
 16 17  2  0
 16 18  1  0
 18 19  1  0
 19 20  1  0
 20 21  2  0
 21 22  1  0
 22 23  2  0
 23 24  1  0
 24 25  1  0
 25 26  1  0
 26 27  2  0
 27 28  1  0
 28 29  2  0
 29 30  1  0
 30 31  2  0
 24 32  2  0
 33 18  1  0
 33 34  1  0
 34 35  1  0
 35 36  1  0
 36 37  1  0
 37 38  2  0
 38 39  1  0
 39 40  2  0
 40 41  1  0
 41 42  2  0
 12  4  1  0
 32 20  1  0
 42 33  1  0
 31 26  1  0
 42 37  1  0
  1 43  1  0
  5 44  1  0
  8 45  1  0
 11 46  1  0
 14 47  1  0
 19 48  1  0
 19 49  1  0
 21 50  1  0
 22 51  1  0
 23 52  1  0
 27 53  1  0
 28 54  1  0
 29 55  1  0
 30 56  1  0
 31 57  1  0
 32 58  1  0
 33 59  1  6
 34 60  1  0
 34 61  1  0
 35 62  1  0
 35 63  1  0
 36 64  1  0
 36 65  1  0
 38 66  1  0
 39 67  1  0
 40 68  1  0
 41 69  1  0
M  END
>  <_MoleculeID>  (54) 
smi6

>  <_InputIndex>  (54) 
6

>  <_InputSMILES>  (54) 
OC(=O)c1cc(C(O)=O)c(cc1C(O)=O)C(=O)N(Cc1cccc(Oc2ccccc2)c1)[C@H]1CCCc2ccccc12

>  <_InputInChIKey>  (54) 
VQGBOYBIENNKMI-LJAQVGFWSA-N

>  <_SMILES>  (54) 
O=C(O)c1cc(C(=O)O)c(C(=O)N(Cc2cccc(Oc3ccccc3)c2)[C@H]2CCCc3ccccc32)cc1C(=O)O

>  <_InChIKey>  (54) 
VQGBOYBIENNKMI-LJAQVGFWSA-N

$$$$
smi6_conf5
     RDKit          3D

 69 73  0  0  0  0  0  0  0  0999 V2000
    7.5158    4.0702    1.4899 O   0  0  0  0  0  0  0  0  0  0  0  0
    6.3239    3.4232    1.3573 C   0  0  0  0  0  0  0  0  0  0  0  0
    5.2970    3.8491    1.8739 O   0  0  0  0  0  0  0  0  0  0  0  0
    6.4125    2.2091    0.5567 C   0  0  0  0  0  0  0  0  0  0  0  0
    7.5177    1.3620    0.6697 C   0  0  0  0  0  0  0  0  0  0  0  0
    7.6099    0.1908   -0.0969 C   0  0  0  0  0  0  0  0  0  0  0  0
    8.8022   -0.6269    0.0829 C   0  0  0  0  0  0  0  0  0  0  0  0
    9.9425    0.1056    0.2247 O   0  0  0  0  0  0  0  0  0  0  0  0
    8.8146   -1.8524    0.1094 O   0  0  0  0  0  0  0  0  0  0  0  0
    6.6077   -0.1803   -1.0067 C   0  0  0  0  0  0  0  0  0  0  0  0
    5.5161    0.7041   -1.1048 C   0  0  0  0  0  0  0  0  0  0  0  0
    5.4059    1.8801   -0.3504 C   0  0  0  0  0  0  0  0  0  0  0  0
    4.2499    2.7543   -0.4997 C   0  0  0  0  0  0  0  0  0  0  0  0
    3.8445    2.8966   -1.7929 O   0  0  0  0  0  0  0  0  0  0  0  0
    3.6748    3.3203    0.4232 O   0  0  0  0  0  0  0  0  0  0  0  0
    6.6963   -1.3947   -1.8069 C   0  0  0  0  0  0  0  0  0  0  0  0
    7.2329   -1.3618   -2.9170 O   0  0  0  0  0  0  0  0  0  0  0  0
    6.1503   -2.5837   -1.2860 N   0  0  0  0  0  0  0  0  0  0  0  0
    5.5363   -2.5679    0.0121 C   0  0  0  0  0  0  0  0  0  0  0  0
    4.0521   -2.4964    0.0083 C   0  0  0  0  0  0  0  0  0  0  0  0
    3.2840   -3.6634   -0.0063 C   0  0  0  0  0  0  0  0  0  0  0  0
    1.8825   -3.6041   -0.0089 C   0  0  0  0  0  0  0  0  0  0  0  0
    1.1923   -2.3822   -0.0000 C   0  0  0  0  0  0  0  0  0  0  0  0
    1.9982   -1.2273    0.0000 C   0  0  0  0  0  0  0  0  0  0  0  0
    1.3760    0.0000    0.0000 O   0  0  0  0  0  0  0  0  0  0  0  0
    0.0000    0.0000    0.0000 C   0  0  0  0  0  0  0  0  0  0  0  0
   -0.7111    0.0000    1.2027 C   0  0  0  0  0  0  0  0  0  0  0  0
   -2.1138    0.0010    1.2110 C   0  0  0  0  0  0  0  0  0  0  0  0
   -2.8620   -0.0009    0.0236 C   0  0  0  0  0  0  0  0  0  0  0  0
   -2.1126   -0.0155   -1.1687 C   0  0  0  0  0  0  0  0  0  0  0  0
   -0.7114   -0.0194   -1.1991 C   0  0  0  0  0  0  0  0  0  0  0  0
    3.3993   -1.2643   -0.0001 C   0  0  0  0  0  0  0  0  0  0  0  0
    6.0860   -3.8382   -1.9818 C   0  0  2  0  0  0  0  0  0  0  0  0
    7.5155   -4.3111   -2.2982 C   0  0  0  0  0  0  0  0  0  0  0  0
    7.5859   -5.5920   -3.1424 C   0  0  0  0  0  0  0  0  0  0  0  0
    6.2473   -6.0679   -3.7067 C   0  0  0  0  0  0  0  0  0  0  0  0
    5.3674   -4.9183   -4.1185 C   0  0  0  0  0  0  0  0  0  0  0  0
    4.6100   -4.9737   -5.2937 C   0  0  0  0  0  0  0  0  0  0  0  0
    3.7564   -3.9233   -5.6243 C   0  0  0  0  0  0  0  0  0  0  0  0
    3.6428   -2.8243   -4.7757 C   0  0  0  0  0  0  0  0  0  0  0  0
    4.3855   -2.7672   -3.5944 C   0  0  0  0  0  0  0  0  0  0  0  0
    5.2640   -3.8056   -3.2579 C   0  0  0  0  0  0  0  0  0  0  0  0
    8.3001    3.6799    1.0529 H   0  0  0  0  0  0  0  0  0  0  0  0
    8.3262    1.6044    1.3555 H   0  0  0  0  0  0  0  0  0  0  0  0
    9.8669    1.0812    0.1953 H   0  0  0  0  0  0  0  0  0  0  0  0
    4.7170    0.4601   -1.8036 H   0  0  0  0  0  0  0  0  0  0  0  0
    4.3447    2.4180   -2.4851 H   0  0  0  0  0  0  0  0  0  0  0  0
    5.9675   -1.7699    0.6285 H   0  0  0  0  0  0  0  0  0  0  0  0
    5.8163   -3.5008    0.5179 H   0  0  0  0  0  0  0  0  0  0  0  0
    3.7674   -4.6375   -0.0192 H   0  0  0  0  0  0  0  0  0  0  0  0
    1.3475   -4.5504   -0.0258 H   0  0  0  0  0  0  0  0  0  0  0  0
    0.1116   -2.3302   -0.0024 H   0  0  0  0  0  0  0  0  0  0  0  0
   -0.1814   -0.0042    2.1525 H   0  0  0  0  0  0  0  0  0  0  0  0
   -2.6026   -0.0043    2.1820 H   0  0  0  0  0  0  0  0  0  0  0  0
   -3.9439   -0.0005    0.0237 H   0  0  0  0  0  0  0  0  0  0  0  0
   -2.6514   -0.0242   -2.1154 H   0  0  0  0  0  0  0  0  0  0  0  0
   -0.1765   -0.0317   -2.1459 H   0  0  0  0  0  0  0  0  0  0  0  0
    3.9791   -0.3443   -0.0009 H   0  0  0  0  0  0  0  0  0  0  0  0
    5.6073   -4.5589   -1.3065 H   0  0  0  0  0  0  0  0  0  0  0  0
    8.0495   -3.5217   -2.8470 H   0  0  0  0  0  0  0  0  0  0  0  0
    8.0793   -4.4614   -1.3684 H   0  0  0  0  0  0  0  0  0  0  0  0
    8.0332   -6.4020   -2.5533 H   0  0  0  0  0  0  0  0  0  0  0  0
    8.2802   -5.4129   -3.9742 H   0  0  0  0  0  0  0  0  0  0  0  0
    5.7113   -6.6527   -2.9484 H   0  0  0  0  0  0  0  0  0  0  0  0
    6.4349   -6.7408   -4.5517 H   0  0  0  0  0  0  0  0  0  0  0  0
    4.6761   -5.8347   -5.9534 H   0  0  0  0  0  0  0  0  0  0  0  0
    3.1714   -3.9660   -6.5385 H   0  0  0  0  0  0  0  0  0  0  0  0
    2.9686   -2.0114   -5.0300 H   0  0  0  0  0  0  0  0  0  0  0  0
    4.2612   -1.9025   -2.9488 H   0  0  0  0  0  0  0  0  0  0  0  0
  1  2  1  0
  2  3  2  0
  2  4  1  0
  4  5  2  0
  5  6  1  0
  6  7  1  0
  7  8  1  0
  7  9  2  0
  6 10  2  0
 10 11  1  0
 11 12  2  0
 12 13  1  0
 13 14  1  0
 13 15  2  0
 10 16  1  0
 16 17  2  0
 16 18  1  0
 18 19  1  0
 19 20  1  0
 20 21  2  0
 21 22  1  0
 22 23  2  0
 23 24  1  0
 24 25  1  0
 25 26  1  0
 26 27  2  0
 27 28  1  0
 28 29  2  0
 29 30  1  0
 30 31  2  0
 24 32  2  0
 33 18  1  0
 33 34  1  0
 34 35  1  0
 35 36  1  0
 36 37  1  0
 37 38  2  0
 38 39  1  0
 39 40  2  0
 40 41  1  0
 41 42  2  0
 12  4  1  0
 32 20  1  0
 42 33  1  0
 31 26  1  0
 42 37  1  0
  1 43  1  0
  5 44  1  0
  8 45  1  0
 11 46  1  0
 14 47  1  0
 19 48  1  0
 19 49  1  0
 21 50  1  0
 22 51  1  0
 23 52  1  0
 27 53  1  0
 28 54  1  0
 29 55  1  0
 30 56  1  0
 31 57  1  0
 32 58  1  0
 33 59  1  1
 34 60  1  0
 34 61  1  0
 35 62  1  0
 35 63  1  0
 36 64  1  0
 36 65  1  0
 38 66  1  0
 39 67  1  0
 40 68  1  0
 41 69  1  0
M  END
>  <_MoleculeID>  (55) 
smi6

>  <_InputIndex>  (55) 
6

>  <_InputSMILES>  (55) 
OC(=O)c1cc(C(O)=O)c(cc1C(O)=O)C(=O)N(Cc1cccc(Oc2ccccc2)c1)[C@H]1CCCc2ccccc12

>  <_InputInChIKey>  (55) 
VQGBOYBIENNKMI-LJAQVGFWSA-N

>  <_SMILES>  (55) 
O=C(O)c1cc(C(=O)O)c(C(=O)N(Cc2cccc(Oc3ccccc3)c2)[C@H]2CCCc3ccccc32)cc1C(=O)O

>  <_InChIKey>  (55) 
VQGBOYBIENNKMI-LJAQVGFWSA-N

$$$$
smi6_conf6
     RDKit          3D

 69 73  0  0  0  0  0  0  0  0999 V2000
   -3.2612    2.8723    6.4919 O   0  0  0  0  0  0  0  0  0  0  0  0
   -2.4903    3.7014    5.7336 C   0  0  0  0  0  0  0  0  0  0  0  0
   -2.9817    4.5824    5.0370 O   0  0  0  0  0  0  0  0  0  0  0  0
   -1.0640    3.4262    5.8460 C   0  0  0  0  0  0  0  0  0  0  0  0
   -0.5969    2.1114    5.9172 C   0  0  0  0  0  0  0  0  0  0  0  0
    0.7748    1.8383    6.0246 C   0  0  0  0  0  0  0  0  0  0  0  0
    1.1677    0.4373    6.1000 C   0  0  0  0  0  0  0  0  0  0  0  0
    0.4572   -0.3683    5.2615 O   0  0  0  0  0  0  0  0  0  0  0  0
    2.0451   -0.0064    6.8322 O   0  0  0  0  0  0  0  0  0  0  0  0
    1.7333    2.8625    6.0681 C   0  0  0  0  0  0  0  0  0  0  0  0
    1.2257    4.1748    6.0086 C   0  0  0  0  0  0  0  0  0  0  0  0
   -0.1406    4.4694    5.9040 C   0  0  0  0  0  0  0  0  0  0  0  0
   -0.6018    5.8504    5.8478 C   0  0  0  0  0  0  0  0  0  0  0  0
    0.1965    6.6555    5.0919 O   0  0  0  0  0  0  0  0  0  0  0  0
   -1.6027    6.2789    6.4110 O   0  0  0  0  0  0  0  0  0  0  0  0
    3.1596    2.5871    6.1800 C   0  0  0  0  0  0  0  0  0  0  0  0
    3.6833    2.4989    7.2933 O   0  0  0  0  0  0  0  0  0  0  0  0
    3.9097    2.4377    4.9976 N   0  0  0  0  0  0  0  0  0  0  0  0
    3.2514    2.5496    3.7263 C   0  0  0  0  0  0  0  0  0  0  0  0
    2.9225    1.2581    3.0690 C   0  0  0  0  0  0  0  0  0  0  0  0
    3.2491    0.0453    3.6811 C   0  0  0  0  0  0  0  0  0  0  0  0
    2.9410   -1.1779    3.0675 C   0  0  0  0  0  0  0  0  0  0  0  0
    2.2992   -1.2410    1.8210 C   0  0  0  0  0  0  0  0  0  0  0  0
    1.9982    0.0000    1.2273 C   0  0  0  0  0  0  0  0  0  0  0  0
    1.3760    0.0000    0.0000 O   0  0  0  0  0  0  0  0  0  0  0  0
    0.0000    0.0000    0.0000 C   0  0  0  0  0  0  0  0  0  0  0  0
   -0.7111    0.0000    1.2027 C   0  0  0  0  0  0  0  0  0  0  0  0
   -2.1138    0.0010    1.2110 C   0  0  0  0  0  0  0  0  0  0  0  0
   -2.8620   -0.0009    0.0236 C   0  0  0  0  0  0  0  0  0  0  0  0
   -2.1126   -0.0155   -1.1687 C   0  0  0  0  0  0  0  0  0  0  0  0
   -0.7114   -0.0194   -1.1991 C   0  0  0  0  0  0  0  0  0  0  0  0
    2.2996    1.2329    1.8218 C   0  0  0  0  0  0  0  0  0  0  0  0
    5.3316    2.2451    4.9393 C   0  0  2  0  0  0  0  0  0  0  0  0
    5.6906    0.9324    5.6570 C   0  0  0  0  0  0  0  0  0  0  0  0
    7.1985    0.6618    5.7641 C   0  0  0  0  0  0  0  0  0  0  0  0
    8.0951    1.8243    5.3379 C   0  0  0  0  0  0  0  0  0  0  0  0
    7.5189    3.1567    5.7350 C   0  0  0  0  0  0  0  0  0  0  0  0
    8.3357    4.1761    6.2367 C   0  0  0  0  0  0  0  0  0  0  0  0
    7.7905    5.4216    6.5411 C   0  0  0  0  0  0  0  0  0  0  0  0
    6.4342    5.6589    6.3294 C   0  0  0  0  0  0  0  0  0  0  0  0
    5.6146    4.6511    5.8168 C   0  0  0  0  0  0  0  0  0  0  0  0
    6.1431    3.3866    5.5253 C   0  0  0  0  0  0  0  0  0  0  0  0
   -2.8090    2.1887    7.0274 H   0  0  0  0  0  0  0  0  0  0  0  0
   -1.2967    1.2792    5.8934 H   0  0  0  0  0  0  0  0  0  0  0  0
   -0.2301    0.0464    4.7011 H   0  0  0  0  0  0  0  0  0  0  0  0
    1.9327    5.0026    6.0460 H   0  0  0  0  0  0  0  0  0  0  0  0
    0.9815    6.2535    4.6669 H   0  0  0  0  0  0  0  0  0  0  0  0
    3.8267    3.1980    3.0544 H   0  0  0  0  0  0  0  0  0  0  0  0
    2.3056    3.0805    3.8931 H   0  0  0  0  0  0  0  0  0  0  0  0
    3.7524    0.0360    4.6451 H   0  0  0  0  0  0  0  0  0  0  0  0
    3.2284   -2.0829    3.5969 H   0  0  0  0  0  0  0  0  0  0  0  0
    2.0594   -2.1814    1.3428 H   0  0  0  0  0  0  0  0  0  0  0  0
   -0.1814   -0.0042    2.1525 H   0  0  0  0  0  0  0  0  0  0  0  0
   -2.6026   -0.0043    2.1820 H   0  0  0  0  0  0  0  0  0  0  0  0
   -3.9439   -0.0005    0.0237 H   0  0  0  0  0  0  0  0  0  0  0  0
   -2.6514   -0.0242   -2.1154 H   0  0  0  0  0  0  0  0  0  0  0  0
   -0.1765   -0.0317   -2.1459 H   0  0  0  0  0  0  0  0  0  0  0  0
    2.0479    2.1662    1.3233 H   0  0  0  0  0  0  0  0  0  0  0  0
    5.6043    2.1645    3.8792 H   0  0  0  0  0  0  0  0  0  0  0  0
    5.2828    0.9496    6.6781 H   0  0  0  0  0  0  0  0  0  0  0  0
    5.2072    0.0829    5.1572 H   0  0  0  0  0  0  0  0  0  0  0  0
    7.4603   -0.2257    5.1749 H   0  0  0  0  0  0  0  0  0  0  0  0
    7.4237    0.4015    6.8070 H   0  0  0  0  0  0  0  0  0  0  0  0
    8.2186    1.8177    4.2475 H   0  0  0  0  0  0  0  0  0  0  0  0
    9.0925    1.6833    5.7708 H   0  0  0  0  0  0  0  0  0  0  0  0
    9.3987    4.0081    6.3876 H   0  0  0  0  0  0  0  0  0  0  0  0
    8.4250    6.2109    6.9335 H   0  0  0  0  0  0  0  0  0  0  0  0
    6.0133    6.6341    6.5573 H   0  0  0  0  0  0  0  0  0  0  0  0
    4.5648    4.8754    5.6502 H   0  0  0  0  0  0  0  0  0  0  0  0
  1  2  1  0
  2  3  2  0
  2  4  1  0
  4  5  2  0
  5  6  1  0
  6  7  1  0
  7  8  1  0
  7  9  2  0
  6 10  2  0
 10 11  1  0
 11 12  2  0
 12 13  1  0
 13 14  1  0
 13 15  2  0
 10 16  1  0
 16 17  2  0
 16 18  1  0
 18 19  1  0
 19 20  1  0
 20 21  2  0
 21 22  1  0
 22 23  2  0
 23 24  1  0
 24 25  1  0
 25 26  1  0
 26 27  2  0
 27 28  1  0
 28 29  2  0
 29 30  1  0
 30 31  2  0
 24 32  2  0
 33 18  1  0
 33 34  1  0
 34 35  1  0
 35 36  1  0
 36 37  1  0
 37 38  2  0
 38 39  1  0
 39 40  2  0
 40 41  1  0
 41 42  2  0
 12  4  1  0
 32 20  1  0
 42 33  1  0
 31 26  1  0
 42 37  1  0
  1 43  1  0
  5 44  1  0
  8 45  1  0
 11 46  1  0
 14 47  1  0
 19 48  1  0
 19 49  1  0
 21 50  1  0
 22 51  1  0
 23 52  1  0
 27 53  1  0
 28 54  1  0
 29 55  1  0
 30 56  1  0
 31 57  1  0
 32 58  1  0
 33 59  1  6
 34 60  1  0
 34 61  1  0
 35 62  1  0
 35 63  1  0
 36 64  1  0
 36 65  1  0
 38 66  1  0
 39 67  1  0
 40 68  1  0
 41 69  1  0
M  END
>  <_MoleculeID>  (56) 
smi6

>  <_InputIndex>  (56) 
6

>  <_InputSMILES>  (56) 
OC(=O)c1cc(C(O)=O)c(cc1C(O)=O)C(=O)N(Cc1cccc(Oc2ccccc2)c1)[C@H]1CCCc2ccccc12

>  <_InputInChIKey>  (56) 
VQGBOYBIENNKMI-LJAQVGFWSA-N

>  <_SMILES>  (56) 
O=C(O)c1cc(C(=O)O)c(C(=O)N(Cc2cccc(Oc3ccccc3)c2)[C@H]2CCCc3ccccc32)cc1C(=O)O

>  <_InChIKey>  (56) 
VQGBOYBIENNKMI-LJAQVGFWSA-N

$$$$
smi6_conf7
     RDKit          3D

 69 73  0  0  0  0  0  0  0  0999 V2000
   -0.3392    0.0882    7.3167 O   0  0  0  0  0  0  0  0  0  0  0  0
   -0.2036    0.1141    5.9610 C   0  0  0  0  0  0  0  0  0  0  0  0
   -1.0461    0.6335    5.2377 O   0  0  0  0  0  0  0  0  0  0  0  0
    1.0182   -0.5255    5.4911 C   0  0  0  0  0  0  0  0  0  0  0  0
    1.4851   -1.6963    6.0939 C   0  0  0  0  0  0  0  0  0  0  0  0
    2.6600   -2.3185    5.6465 C   0  0  0  0  0  0  0  0  0  0  0  0
    3.0732   -3.5312    6.3402 C   0  0  0  0  0  0  0  0  0  0  0  0
    2.8844   -3.4725    7.6885 O   0  0  0  0  0  0  0  0  0  0  0  0
    3.5463   -4.5232    5.7971 O   0  0  0  0  0  0  0  0  0  0  0  0
    3.4163   -1.7982    4.5848 C   0  0  0  0  0  0  0  0  0  0  0  0
    2.9239   -0.6101    4.0111 C   0  0  0  0  0  0  0  0  0  0  0  0
    1.7542    0.0289    4.4445 C   0  0  0  0  0  0  0  0  0  0  0  0
    1.2985    1.2581    3.8087 C   0  0  0  0  0  0  0  0  0  0  0  0
    1.4584    1.2568    2.4554 O   0  0  0  0  0  0  0  0  0  0  0  0
    0.8146    2.2162    4.4008 O   0  0  0  0  0  0  0  0  0  0  0  0
    4.6378   -2.4382    4.1147 C   0  0  0  0  0  0  0  0  0  0  0  0
    5.7245   -2.1265    4.6082 O   0  0  0  0  0  0  0  0  0  0  0  0
    4.5411   -3.3994    3.0901 N   0  0  0  0  0  0  0  0  0  0  0  0
    3.2514   -3.7263    2.5496 C   0  0  0  0  0  0  0  0  0  0  0  0
    2.9225   -3.0690    1.2581 C   0  0  0  0  0  0  0  0  0  0  0  0
    3.2491   -3.6811    0.0453 C   0  0  0  0  0  0  0  0  0  0  0  0
    2.9410   -3.0675   -1.1779 C   0  0  0  0  0  0  0  0  0  0  0  0
    2.2992   -1.8210   -1.2410 C   0  0  0  0  0  0  0  0  0  0  0  0
    1.9982   -1.2273    0.0000 C   0  0  0  0  0  0  0  0  0  0  0  0
    1.3760   -0.0000    0.0000 O   0  0  0  0  0  0  0  0  0  0  0  0
    0.0000    0.0000    0.0000 C   0  0  0  0  0  0  0  0  0  0  0  0
   -0.7111    0.0000    1.2027 C   0  0  0  0  0  0  0  0  0  0  0  0
   -2.1138    0.0010    1.2110 C   0  0  0  0  0  0  0  0  0  0  0  0
   -2.8620   -0.0009    0.0236 C   0  0  0  0  0  0  0  0  0  0  0  0
   -2.1126   -0.0155   -1.1687 C   0  0  0  0  0  0  0  0  0  0  0  0
   -0.7114   -0.0194   -1.1991 C   0  0  0  0  0  0  0  0  0  0  0  0
    2.2996   -1.8218    1.2329 C   0  0  0  0  0  0  0  0  0  0  0  0
    5.6545   -4.0569    2.4655 C   0  0  2  0  0  0  0  0  0  0  0  0
    6.4197   -4.8665    3.5267 C   0  0  0  0  0  0  0  0  0  0  0  0
    7.7037   -5.5323    3.0103 C   0  0  0  0  0  0  0  0  0  0  0  0
    8.1252   -5.1159    1.6012 C   0  0  0  0  0  0  0  0  0  0  0  0
    7.8490   -3.6603    1.3362 C   0  0  0  0  0  0  0  0  0  0  0  0
    8.7647   -2.8674    0.6356 C   0  0  0  0  0  0  0  0  0  0  0  0
    8.4615   -1.5381    0.3492 C   0  0  0  0  0  0  0  0  0  0  0  0
    7.2381   -1.0017    0.7448 C   0  0  0  0  0  0  0  0  0  0  0  0
    6.3133   -1.7899    1.4331 C   0  0  0  0  0  0  0  0  0  0  0  0
    6.6116   -3.1224    1.7472 C   0  0  0  0  0  0  0  0  0  0  0  0
    0.3684   -0.3410    7.8397 H   0  0  0  0  0  0  0  0  0  0  0  0
    0.9409   -2.1396    6.9246 H   0  0  0  0  0  0  0  0  0  0  0  0
    2.5017   -2.6525    8.0622 H   0  0  0  0  0  0  0  0  0  0  0  0
    3.4822   -0.1659    3.1879 H   0  0  0  0  0  0  0  0  0  0  0  0
    1.8503    0.4611    2.0411 H   0  0  0  0  0  0  0  0  0  0  0  0
    2.4679   -3.5440    3.2950 H   0  0  0  0  0  0  0  0  0  0  0  0
    3.2338   -4.8100    2.3775 H   0  0  0  0  0  0  0  0  0  0  0  0
    3.7524   -4.6451    0.0360 H   0  0  0  0  0  0  0  0  0  0  0  0
    3.2284   -3.5969   -2.0829 H   0  0  0  0  0  0  0  0  0  0  0  0
    2.0594   -1.3428   -2.1814 H   0  0  0  0  0  0  0  0  0  0  0  0
   -0.1814   -0.0042    2.1525 H   0  0  0  0  0  0  0  0  0  0  0  0
   -2.6026   -0.0043    2.1820 H   0  0  0  0  0  0  0  0  0  0  0  0
   -3.9439   -0.0005    0.0237 H   0  0  0  0  0  0  0  0  0  0  0  0
   -2.6514   -0.0242   -2.1154 H   0  0  0  0  0  0  0  0  0  0  0  0
   -0.1765   -0.0317   -2.1459 H   0  0  0  0  0  0  0  0  0  0  0  0
    2.0479   -1.3233    2.1662 H   0  0  0  0  0  0  0  0  0  0  0  0
    5.2450   -4.7426    1.7127 H   0  0  0  0  0  0  0  0  0  0  0  0
    6.7000   -4.2058    4.3600 H   0  0  0  0  0  0  0  0  0  0  0  0
    5.7663   -5.6339    3.9616 H   0  0  0  0  0  0  0  0  0  0  0  0
    7.5964   -6.6235    3.0431 H   0  0  0  0  0  0  0  0  0  0  0  0
    8.5153   -5.2937    3.7106 H   0  0  0  0  0  0  0  0  0  0  0  0
    7.5752   -5.7078    0.8587 H   0  0  0  0  0  0  0  0  0  0  0  0
    9.1887   -5.3448    1.4643 H   0  0  0  0  0  0  0  0  0  0  0  0
    9.7139   -3.2808    0.3052 H   0  0  0  0  0  0  0  0  0  0  0  0
    9.1745   -0.9228   -0.1919 H   0  0  0  0  0  0  0  0  0  0  0  0
    6.9992    0.0319    0.5111 H   0  0  0  0  0  0  0  0  0  0  0  0
    5.3632   -1.3438    1.7131 H   0  0  0  0  0  0  0  0  0  0  0  0
  1  2  1  0
  2  3  2  0
  2  4  1  0
  4  5  2  0
  5  6  1  0
  6  7  1  0
  7  8  1  0
  7  9  2  0
  6 10  2  0
 10 11  1  0
 11 12  2  0
 12 13  1  0
 13 14  1  0
 13 15  2  0
 10 16  1  0
 16 17  2  0
 16 18  1  0
 18 19  1  0
 19 20  1  0
 20 21  2  0
 21 22  1  0
 22 23  2  0
 23 24  1  0
 24 25  1  0
 25 26  1  0
 26 27  2  0
 27 28  1  0
 28 29  2  0
 29 30  1  0
 30 31  2  0
 24 32  2  0
 33 18  1  0
 33 34  1  0
 34 35  1  0
 35 36  1  0
 36 37  1  0
 37 38  2  0
 38 39  1  0
 39 40  2  0
 40 41  1  0
 41 42  2  0
 12  4  1  0
 32 20  1  0
 42 33  1  0
 31 26  1  0
 42 37  1  0
  1 43  1  0
  5 44  1  0
  8 45  1  0
 11 46  1  0
 14 47  1  0
 19 48  1  0
 19 49  1  0
 21 50  1  0
 22 51  1  0
 23 52  1  0
 27 53  1  0
 28 54  1  0
 29 55  1  0
 30 56  1  0
 31 57  1  0
 32 58  1  0
 33 59  1  6
 34 60  1  0
 34 61  1  0
 35 62  1  0
 35 63  1  0
 36 64  1  0
 36 65  1  0
 38 66  1  0
 39 67  1  0
 40 68  1  0
 41 69  1  0
M  END
>  <_MoleculeID>  (57) 
smi6

>  <_InputIndex>  (57) 
6

>  <_InputSMILES>  (57) 
OC(=O)c1cc(C(O)=O)c(cc1C(O)=O)C(=O)N(Cc1cccc(Oc2ccccc2)c1)[C@H]1CCCc2ccccc12

>  <_InputInChIKey>  (57) 
VQGBOYBIENNKMI-LJAQVGFWSA-N

>  <_SMILES>  (57) 
O=C(O)c1cc(C(=O)O)c(C(=O)N(Cc2cccc(Oc3ccccc3)c2)[C@H]2CCCc3ccccc32)cc1C(=O)O

>  <_InChIKey>  (57) 
VQGBOYBIENNKMI-LJAQVGFWSA-N

$$$$
smi6_conf8
     RDKit          3D

 69 73  0  0  0  0  0  0  0  0999 V2000
    3.5180   -6.2603   -1.6182 O   0  0  0  0  0  0  0  0  0  0  0  0
    2.2177   -5.9610   -1.3416 C   0  0  0  0  0  0  0  0  0  0  0  0
    1.3335   -6.0871   -2.1812 O   0  0  0  0  0  0  0  0  0  0  0  0
    2.0113   -5.4911    0.0220 C   0  0  0  0  0  0  0  0  0  0  0  0
    2.6797   -6.0939    1.0907 C   0  0  0  0  0  0  0  0  0  0  0  0
    2.4871   -5.6465    2.4061 C   0  0  0  0  0  0  0  0  0  0  0  0
    3.2211   -6.3402    3.4563 C   0  0  0  0  0  0  0  0  0  0  0  0
    3.2853   -7.6885    3.2693 O   0  0  0  0  0  0  0  0  0  0  0  0
    3.7415   -5.7971    4.4242 O   0  0  0  0  0  0  0  0  0  0  0  0
    1.6204   -4.5848    2.7086 C   0  0  0  0  0  0  0  0  0  0  0  0
    0.9531   -4.0111    1.6091 C   0  0  0  0  0  0  0  0  0  0  0  0
    1.1291   -4.4445    0.2879 C   0  0  0  0  0  0  0  0  0  0  0  0
    0.4070   -3.8087   -0.8062 C   0  0  0  0  0  0  0  0  0  0  0  0
   -0.8867   -3.5115   -0.4982 O   0  0  0  0  0  0  0  0  0  0  0  0
    0.8844   -3.5517   -1.9057 O   0  0  0  0  0  0  0  0  0  0  0  0
    1.4145   -4.1147    4.0722 C   0  0  0  0  0  0  0  0  0  0  0  0
    0.5208   -4.6082    4.7644 O   0  0  0  0  0  0  0  0  0  0  0  0
    2.2471   -3.0901    4.5623 N   0  0  0  0  0  0  0  0  0  0  0  0
    3.2730   -2.5496    3.7153 C   0  0  0  0  0  0  0  0  0  0  0  0
    2.9374   -1.2581    3.0615 C   0  0  0  0  0  0  0  0  0  0  0  0
    3.2379   -0.0453    3.6867 C   0  0  0  0  0  0  0  0  0  0  0  0
    2.9252    1.1779    3.0756 C   0  0  0  0  0  0  0  0  0  0  0  0
    2.2992    1.2410    1.8210 C   0  0  0  0  0  0  0  0  0  0  0  0
    1.9982   -0.0000    1.2273 C   0  0  0  0  0  0  0  0  0  0  0  0
    1.3760    0.0000    0.0000 O   0  0  0  0  0  0  0  0  0  0  0  0
    0.0000    0.0000    0.0000 C   0  0  0  0  0  0  0  0  0  0  0  0
   -0.7111    0.0000    1.2027 C   0  0  0  0  0  0  0  0  0  0  0  0
   -2.1138    0.0010    1.2110 C   0  0  0  0  0  0  0  0  0  0  0  0
   -2.8620   -0.0009    0.0236 C   0  0  0  0  0  0  0  0  0  0  0  0
   -2.1126   -0.0155   -1.1687 C   0  0  0  0  0  0  0  0  0  0  0  0
   -0.7114   -0.0194   -1.1991 C   0  0  0  0  0  0  0  0  0  0  0  0
    2.2995   -1.2329    1.8219 C   0  0  0  0  0  0  0  0  0  0  0  0
    2.1193   -2.4655    5.8491 C   0  0  1  0  0  0  0  0  0  0  0  0
    0.7504   -1.7685    5.9355 C   0  0  0  0  0  0  0  0  0  0  0  0
    0.4395   -1.1525    7.3075 C   0  0  0  0  0  0  0  0  0  0  0  0
    1.4309   -1.5092    8.4151 C   0  0  0  0  0  0  0  0  0  0  0  0
    1.9223   -2.9270    8.2979 C   0  0  0  0  0  0  0  0  0  0  0  0
    2.0847   -3.7309    9.4316 C   0  0  0  0  0  0  0  0  0  0  0  0
    2.5982   -5.0200    9.3056 C   0  0  0  0  0  0  0  0  0  0  0  0
    2.9672   -5.5035    8.0523 C   0  0  0  0  0  0  0  0  0  0  0  0
    2.8204   -4.7029    6.9176 C   0  0  0  0  0  0  0  0  0  0  0  0
    2.2861   -3.4121    7.0244 C   0  0  0  0  0  0  0  0  0  0  0  0
    4.1777   -6.1391   -0.9050 H   0  0  0  0  0  0  0  0  0  0  0  0
    3.3589   -6.9246    0.9138 H   0  0  0  0  0  0  0  0  0  0  0  0
    2.8501   -8.0622    2.4759 H   0  0  0  0  0  0  0  0  0  0  0  0
    0.2648   -3.1879    1.7969 H   0  0  0  0  0  0  0  0  0  0  0  0
   -1.2088   -3.7413    0.3973 H   0  0  0  0  0  0  0  0  0  0  0  0
    3.5892   -3.2950    2.9756 H   0  0  0  0  0  0  0  0  0  0  0  0
    4.1576   -2.3775    4.3417 H   0  0  0  0  0  0  0  0  0  0  0  0
    3.7181   -0.0360    4.6625 H   0  0  0  0  0  0  0  0  0  0  0  0
    3.1823    2.0829    3.6203 H   0  0  0  0  0  0  0  0  0  0  0  0
    2.0552    2.1814    1.3450 H   0  0  0  0  0  0  0  0  0  0  0  0
   -0.1814   -0.0042    2.1525 H   0  0  0  0  0  0  0  0  0  0  0  0
   -2.6026   -0.0043    2.1820 H   0  0  0  0  0  0  0  0  0  0  0  0
   -3.9439   -0.0005    0.0237 H   0  0  0  0  0  0  0  0  0  0  0  0
   -2.6514   -0.0242   -2.1154 H   0  0  0  0  0  0  0  0  0  0  0  0
   -0.1765   -0.0317   -2.1459 H   0  0  0  0  0  0  0  0  0  0  0  0
    2.0462   -2.1662    1.3242 H   0  0  0  0  0  0  0  0  0  0  0  0
    2.9144   -1.7127    5.9240 H   0  0  0  0  0  0  0  0  0  0  0  0
   -0.0449   -2.4935    5.7089 H   0  0  0  0  0  0  0  0  0  0  0  0
    0.6724   -0.9900    5.1655 H   0  0  0  0  0  0  0  0  0  0  0  0
    0.3792   -0.0607    7.2204 H   0  0  0  0  0  0  0  0  0  0  0  0
   -0.5643   -1.4813    7.6079 H   0  0  0  0  0  0  0  0  0  0  0  0
    2.3005   -0.8418    8.3644 H   0  0  0  0  0  0  0  0  0  0  0  0
    0.9560   -1.3377    9.3883 H   0  0  0  0  0  0  0  0  0  0  0  0
    1.8183   -3.3571   10.4166 H   0  0  0  0  0  0  0  0  0  0  0  0
    2.7208   -5.6442   10.1860 H   0  0  0  0  0  0  0  0  0  0  0  0
    3.3774   -6.5050    7.9577 H   0  0  0  0  0  0  0  0  0  0  0  0
    3.1323   -5.1063    5.9583 H   0  0  0  0  0  0  0  0  0  0  0  0
  1  2  1  0
  2  3  2  0
  2  4  1  0
  4  5  2  0
  5  6  1  0
  6  7  1  0
  7  8  1  0
  7  9  2  0
  6 10  2  0
 10 11  1  0
 11 12  2  0
 12 13  1  0
 13 14  1  0
 13 15  2  0
 10 16  1  0
 16 17  2  0
 16 18  1  0
 18 19  1  0
 19 20  1  0
 20 21  2  0
 21 22  1  0
 22 23  2  0
 23 24  1  0
 24 25  1  0
 25 26  1  0
 26 27  2  0
 27 28  1  0
 28 29  2  0
 29 30  1  0
 30 31  2  0
 24 32  2  0
 33 18  1  0
 33 34  1  0
 34 35  1  0
 35 36  1  0
 36 37  1  0
 37 38  2  0
 38 39  1  0
 39 40  2  0
 40 41  1  0
 41 42  2  0
 12  4  1  0
 32 20  1  0
 42 33  1  0
 31 26  1  0
 42 37  1  0
  1 43  1  0
  5 44  1  0
  8 45  1  0
 11 46  1  0
 14 47  1  0
 19 48  1  0
 19 49  1  0
 21 50  1  0
 22 51  1  0
 23 52  1  0
 27 53  1  0
 28 54  1  0
 29 55  1  0
 30 56  1  0
 31 57  1  0
 32 58  1  0
 33 59  1  1
 34 60  1  0
 34 61  1  0
 35 62  1  0
 35 63  1  0
 36 64  1  0
 36 65  1  0
 38 66  1  0
 39 67  1  0
 40 68  1  0
 41 69  1  0
M  END
>  <_MoleculeID>  (58) 
smi6

>  <_InputIndex>  (58) 
6

>  <_InputSMILES>  (58) 
OC(=O)c1cc(C(O)=O)c(cc1C(O)=O)C(=O)N(Cc1cccc(Oc2ccccc2)c1)[C@H]1CCCc2ccccc12

>  <_InputInChIKey>  (58) 
VQGBOYBIENNKMI-LJAQVGFWSA-N

>  <_SMILES>  (58) 
O=C(O)c1cc(C(=O)O)c(C(=O)N(Cc2cccc(Oc3ccccc3)c2)[C@H]2CCCc3ccccc32)cc1C(=O)O

>  <_InChIKey>  (58) 
VQGBOYBIENNKMI-LJAQVGFWSA-N

$$$$
smi6_conf9
     RDKit          3D

 69 73  0  0  0  0  0  0  0  0999 V2000
   -3.2612   -6.4919    2.8723 O   0  0  0  0  0  0  0  0  0  0  0  0
   -2.4903   -5.7336    3.7014 C   0  0  0  0  0  0  0  0  0  0  0  0
   -2.9817   -5.0370    4.5824 O   0  0  0  0  0  0  0  0  0  0  0  0
   -1.0640   -5.8460    3.4262 C   0  0  0  0  0  0  0  0  0  0  0  0
   -0.5969   -5.9172    2.1114 C   0  0  0  0  0  0  0  0  0  0  0  0
    0.7748   -6.0246    1.8383 C   0  0  0  0  0  0  0  0  0  0  0  0
    1.1677   -6.1000    0.4373 C   0  0  0  0  0  0  0  0  0  0  0  0
    0.4572   -5.2615   -0.3683 O   0  0  0  0  0  0  0  0  0  0  0  0
    2.0451   -6.8322   -0.0064 O   0  0  0  0  0  0  0  0  0  0  0  0
    1.7333   -6.0681    2.8625 C   0  0  0  0  0  0  0  0  0  0  0  0
    1.2257   -6.0086    4.1748 C   0  0  0  0  0  0  0  0  0  0  0  0
   -0.1406   -5.9040    4.4694 C   0  0  0  0  0  0  0  0  0  0  0  0
   -0.6018   -5.8478    5.8504 C   0  0  0  0  0  0  0  0  0  0  0  0
    0.0708   -6.6954    6.6787 O   0  0  0  0  0  0  0  0  0  0  0  0
   -1.5010   -5.1226    6.2604 O   0  0  0  0  0  0  0  0  0  0  0  0
    3.1596   -6.1800    2.5871 C   0  0  0  0  0  0  0  0  0  0  0  0
    3.6833   -7.2933    2.4989 O   0  0  0  0  0  0  0  0  0  0  0  0
    3.9097   -4.9976    2.4377 N   0  0  0  0  0  0  0  0  0  0  0  0
    3.2514   -3.7263    2.5496 C   0  0  0  0  0  0  0  0  0  0  0  0
    2.9225   -3.0690    1.2581 C   0  0  0  0  0  0  0  0  0  0  0  0
    3.2491   -3.6811    0.0453 C   0  0  0  0  0  0  0  0  0  0  0  0
    2.9410   -3.0675   -1.1779 C   0  0  0  0  0  0  0  0  0  0  0  0
    2.2992   -1.8210   -1.2410 C   0  0  0  0  0  0  0  0  0  0  0  0
    1.9982   -1.2273    0.0000 C   0  0  0  0  0  0  0  0  0  0  0  0
    1.3760    0.0000    0.0000 O   0  0  0  0  0  0  0  0  0  0  0  0
    0.0000    0.0000    0.0000 C   0  0  0  0  0  0  0  0  0  0  0  0
   -0.7111    0.0000    1.2027 C   0  0  0  0  0  0  0  0  0  0  0  0
   -2.1138    0.0010    1.2110 C   0  0  0  0  0  0  0  0  0  0  0  0
   -2.8620   -0.0009    0.0236 C   0  0  0  0  0  0  0  0  0  0  0  0
   -2.1126   -0.0155   -1.1687 C   0  0  0  0  0  0  0  0  0  0  0  0
   -0.7114   -0.0194   -1.1991 C   0  0  0  0  0  0  0  0  0  0  0  0
    2.2996   -1.8218    1.2329 C   0  0  0  0  0  0  0  0  0  0  0  0
    5.3316   -4.9393    2.2451 C   0  0  2  0  0  0  0  0  0  0  0  0
    5.6906   -5.6570    0.9324 C   0  0  0  0  0  0  0  0  0  0  0  0
    7.1985   -5.7641    0.6618 C   0  0  0  0  0  0  0  0  0  0  0  0
    8.0951   -5.3379    1.8243 C   0  0  0  0  0  0  0  0  0  0  0  0
    7.5189   -5.7350    3.1567 C   0  0  0  0  0  0  0  0  0  0  0  0
    8.3357   -6.2367    4.1761 C   0  0  0  0  0  0  0  0  0  0  0  0
    7.7905   -6.5411    5.4216 C   0  0  0  0  0  0  0  0  0  0  0  0
    6.4342   -6.3294    5.6589 C   0  0  0  0  0  0  0  0  0  0  0  0
    5.6146   -5.8168    4.6511 C   0  0  0  0  0  0  0  0  0  0  0  0
    6.1431   -5.5253    3.3866 C   0  0  0  0  0  0  0  0  0  0  0  0
   -2.8090   -7.0274    2.1887 H   0  0  0  0  0  0  0  0  0  0  0  0
   -1.2967   -5.8934    1.2792 H   0  0  0  0  0  0  0  0  0  0  0  0
   -0.2301   -4.7011    0.0464 H   0  0  0  0  0  0  0  0  0  0  0  0
    1.9327   -6.0460    5.0026 H   0  0  0  0  0  0  0  0  0  0  0  0
    0.7794   -7.2486    6.2910 H   0  0  0  0  0  0  0  0  0  0  0  0
    3.8267   -3.0544    3.1980 H   0  0  0  0  0  0  0  0  0  0  0  0
    2.3056   -3.8931    3.0805 H   0  0  0  0  0  0  0  0  0  0  0  0
    3.7524   -4.6451    0.0360 H   0  0  0  0  0  0  0  0  0  0  0  0
    3.2284   -3.5969   -2.0829 H   0  0  0  0  0  0  0  0  0  0  0  0
    2.0594   -1.3428   -2.1814 H   0  0  0  0  0  0  0  0  0  0  0  0
   -0.1814   -0.0042    2.1525 H   0  0  0  0  0  0  0  0  0  0  0  0
   -2.6026   -0.0043    2.1820 H   0  0  0  0  0  0  0  0  0  0  0  0
   -3.9439   -0.0005    0.0237 H   0  0  0  0  0  0  0  0  0  0  0  0
   -2.6514   -0.0242   -2.1154 H   0  0  0  0  0  0  0  0  0  0  0  0
   -0.1765   -0.0317   -2.1459 H   0  0  0  0  0  0  0  0  0  0  0  0
    2.0479   -1.3233    2.1662 H   0  0  0  0  0  0  0  0  0  0  0  0
    5.6043   -3.8792    2.1645 H   0  0  0  0  0  0  0  0  0  0  0  0
    5.2828   -6.6781    0.9496 H   0  0  0  0  0  0  0  0  0  0  0  0
    5.2072   -5.1572    0.0829 H   0  0  0  0  0  0  0  0  0  0  0  0
    7.4603   -5.1749   -0.2257 H   0  0  0  0  0  0  0  0  0  0  0  0
    7.4237   -6.8070    0.4015 H   0  0  0  0  0  0  0  0  0  0  0  0
    8.2186   -4.2475    1.8177 H   0  0  0  0  0  0  0  0  0  0  0  0
    9.0925   -5.7708    1.6833 H   0  0  0  0  0  0  0  0  0  0  0  0
    9.3987   -6.3876    4.0081 H   0  0  0  0  0  0  0  0  0  0  0  0
    8.4250   -6.9335    6.2109 H   0  0  0  0  0  0  0  0  0  0  0  0
    6.0133   -6.5573    6.6341 H   0  0  0  0  0  0  0  0  0  0  0  0
    4.5648   -5.6502    4.8754 H   0  0  0  0  0  0  0  0  0  0  0  0
  1  2  1  0
  2  3  2  0
  2  4  1  0
  4  5  2  0
  5  6  1  0
  6  7  1  0
  7  8  1  0
  7  9  2  0
  6 10  2  0
 10 11  1  0
 11 12  2  0
 12 13  1  0
 13 14  1  0
 13 15  2  0
 10 16  1  0
 16 17  2  0
 16 18  1  0
 18 19  1  0
 19 20  1  0
 20 21  2  0
 21 22  1  0
 22 23  2  0
 23 24  1  0
 24 25  1  0
 25 26  1  0
 26 27  2  0
 27 28  1  0
 28 29  2  0
 29 30  1  0
 30 31  2  0
 24 32  2  0
 33 18  1  0
 33 34  1  0
 34 35  1  0
 35 36  1  0
 36 37  1  0
 37 38  2  0
 38 39  1  0
 39 40  2  0
 40 41  1  0
 41 42  2  0
 12  4  1  0
 32 20  1  0
 42 33  1  0
 31 26  1  0
 42 37  1  0
  1 43  1  0
  5 44  1  0
  8 45  1  0
 11 46  1  0
 14 47  1  0
 19 48  1  0
 19 49  1  0
 21 50  1  0
 22 51  1  0
 23 52  1  0
 27 53  1  0
 28 54  1  0
 29 55  1  0
 30 56  1  0
 31 57  1  0
 32 58  1  0
 33 59  1  6
 34 60  1  0
 34 61  1  0
 35 62  1  0
 35 63  1  0
 36 64  1  0
 36 65  1  0
 38 66  1  0
 39 67  1  0
 40 68  1  0
 41 69  1  0
M  END
>  <_MoleculeID>  (59) 
smi6

>  <_InputIndex>  (59) 
6

>  <_InputSMILES>  (59) 
OC(=O)c1cc(C(O)=O)c(cc1C(O)=O)C(=O)N(Cc1cccc(Oc2ccccc2)c1)[C@H]1CCCc2ccccc12

>  <_InputInChIKey>  (59) 
VQGBOYBIENNKMI-LJAQVGFWSA-N

>  <_SMILES>  (59) 
O=C(O)c1cc(C(=O)O)c(C(=O)N(Cc2cccc(Oc3ccccc3)c2)[C@H]2CCCc3ccccc32)cc1C(=O)O

>  <_InChIKey>  (59) 
VQGBOYBIENNKMI-LJAQVGFWSA-N

$$$$
smi7_conf0
     RDKit          3D

 48 51  0  0  0  0  0  0  0  0999 V2000
   -4.3480   -0.0023   -0.0230 C   0  0  0  0  0  0  0  0  0  0  0  0
   -2.8620   -0.0019   -0.0232 C   0  0  0  0  0  0  0  0  0  0  0  0
   -2.1508    0.0006    1.1794 C   0  0  0  0  0  0  0  0  0  0  0  0
   -0.7481   -0.0000    1.1875 C   0  0  0  0  0  0  0  0  0  0  0  0
    0.0000    0.0000    0.0000 C   0  0  0  0  0  0  0  0  0  0  0  0
   -0.7495    0.0122   -1.1922 C   0  0  0  0  0  0  0  0  0  0  0  0
   -2.1508    0.0156   -1.2224 C   0  0  0  0  0  0  0  0  0  0  0  0
   -2.8818    0.0298   -2.5161 C   0  0  0  0  0  0  0  0  0  0  0  0
    1.3980    0.0000    0.0000 N   0  0  0  0  0  0  0  0  0  0  0  0
    2.0872    0.0000    1.2967 C   0  0  0  0  0  0  0  0  0  0  0  0
    3.5208    0.5126    1.1431 C   0  0  0  0  0  0  0  0  0  0  0  0
    4.2421   -0.2425    0.1112 N   0  0  0  0  0  0  0  0  0  0  0  0
    5.6158    0.2142    0.0129 C   0  0  0  0  0  0  0  0  0  0  0  0
    6.4728   -0.1297    1.1580 C   0  0  0  0  0  0  0  0  0  0  0  0
    6.6630    0.5938    2.2429 N   0  0  0  0  0  0  0  0  0  0  0  0
    7.5361   -0.1283    3.0208 C   0  0  0  0  0  0  0  0  0  0  0  0
    8.0788    0.1702    4.2787 C   0  0  0  0  0  0  0  0  0  0  0  0
    8.9554   -0.7585    4.8487 C   0  0  0  0  0  0  0  0  0  0  0  0
    9.2999   -1.9557    4.2101 C   0  0  0  0  0  0  0  0  0  0  0  0
    8.7605   -2.2586    2.9528 C   0  0  0  0  0  0  0  0  0  0  0  0
    7.8852   -1.3196    2.3961 C   0  0  0  0  0  0  0  0  0  0  0  0
    7.1945   -1.2971    1.2112 N   0  0  0  0  0  0  0  0  0  0  0  0
    3.5584   -0.1010   -1.1800 C   0  0  0  0  0  0  0  0  0  0  0  0
    2.1250   -0.6326   -1.1049 C   0  0  0  0  0  0  0  0  0  0  0  0
   -4.7302   -0.0006    1.0020 H   0  0  0  0  0  0  0  0  0  0  0  0
   -4.7405   -0.8805   -0.5446 H   0  0  0  0  0  0  0  0  0  0  0  0
   -4.7412    0.8845   -0.5310 H   0  0  0  0  0  0  0  0  0  0  0  0
   -2.6804    0.0063    2.1292 H   0  0  0  0  0  0  0  0  0  0  0  0
   -0.2591    0.0073    2.1584 H   0  0  0  0  0  0  0  0  0  0  0  0
   -0.2109    0.0194   -2.1390 H   0  0  0  0  0  0  0  0  0  0  0  0
   -2.1776    0.0364   -3.3532 H   0  0  0  0  0  0  0  0  0  0  0  0
   -3.5286    0.9091   -2.5921 H   0  0  0  0  0  0  0  0  0  0  0  0
   -3.5180   -0.8556   -2.6176 H   0  0  0  0  0  0  0  0  0  0  0  0
    2.0949   -1.0221    1.6977 H   0  0  0  0  0  0  0  0  0  0  0  0
    1.5913    0.6307    2.0411 H   0  0  0  0  0  0  0  0  0  0  0  0
    3.5040    1.5838    0.9003 H   0  0  0  0  0  0  0  0  0  0  0  0
    4.0287    0.4048    2.1093 H   0  0  0  0  0  0  0  0  0  0  0  0
    5.6463    1.2910   -0.1923 H   0  0  0  0  0  0  0  0  0  0  0  0
    6.0546   -0.2572   -0.8757 H   0  0  0  0  0  0  0  0  0  0  0  0
    7.8306    1.0900    4.7974 H   0  0  0  0  0  0  0  0  0  0  0  0
    9.3857   -0.5427    5.8248 H   0  0  0  0  0  0  0  0  0  0  0  0
    9.9847   -2.6501    4.6878 H   0  0  0  0  0  0  0  0  0  0  0  0
    8.9918   -3.1688    2.4128 H   0  0  0  0  0  0  0  0  0  0  0  0
    7.2146   -2.0152    0.4992 H   0  0  0  0  0  0  0  0  0  0  0  0
    4.0937   -0.6666   -1.9523 H   0  0  0  0  0  0  0  0  0  0  0  0
    3.5437    0.9507   -1.4970 H   0  0  0  0  0  0  0  0  0  0  0  0
    2.1348   -1.7217   -0.9688 H   0  0  0  0  0  0  0  0  0  0  0  0
    1.6454   -0.4126   -2.0666 H   0  0  0  0  0  0  0  0  0  0  0  0
  1  2  1  0
  2  3  2  0
  3  4  1  0
  4  5  2  0
  5  6  1  0
  6  7  2  0
  7  8  1  0
  5  9  1  0
  9 10  1  0
 10 11  1  0
 11 12  1  0
 12 13  1  0
 13 14  1  0
 14 15  2  0
 15 16  1  0
 16 17  2  0
 17 18  1  0
 18 19  2  0
 19 20  1  0
 20 21  2  0
 21 22  1  0
 12 23  1  0
 23 24  1  0
  7  2  1  0
 24  9  1  0
 22 14  1  0
 21 16  1  0
  1 25  1  0
  1 26  1  0
  1 27  1  0
  3 28  1  0
  4 29  1  0
  6 30  1  0
  8 31  1  0
  8 32  1  0
  8 33  1  0
 10 34  1  0
 10 35  1  0
 11 36  1  0
 11 37  1  0
 13 38  1  0
 13 39  1  0
 17 40  1  0
 18 41  1  0
 19 42  1  0
 20 43  1  0
 22 44  1  0
 23 45  1  0
 23 46  1  0
 24 47  1  0
 24 48  1  0
M  END
>  <_MoleculeID>  (60) 
smi7

>  <_InputIndex>  (60) 
7

>  <_InputSMILES>  (60) 
Cc1ccc(cc1C)N1CCN(Cc2nc3ccccc3[nH]2)CC1

>  <_InputInChIKey>  (60) 
SAQMCVDGOIRQTC-UHFFFAOYSA-N

>  <_SMILES>  (60) 
Cc1ccc(N2CCN(Cc3nc4ccccc4[nH]3)CC2)cc1C

>  <_InChIKey>  (60) 
SAQMCVDGOIRQTC-UHFFFAOYSA-N

$$$$
smi7_conf1
     RDKit          3D

 48 51  0  0  0  0  0  0  0  0999 V2000
   -4.3480   -0.0023   -0.0230 C   0  0  0  0  0  0  0  0  0  0  0  0
   -2.8620   -0.0019   -0.0232 C   0  0  0  0  0  0  0  0  0  0  0  0
   -2.1508    0.0006    1.1794 C   0  0  0  0  0  0  0  0  0  0  0  0
   -0.7481   -0.0000    1.1875 C   0  0  0  0  0  0  0  0  0  0  0  0
    0.0000    0.0000    0.0000 C   0  0  0  0  0  0  0  0  0  0  0  0
   -0.7495    0.0122   -1.1922 C   0  0  0  0  0  0  0  0  0  0  0  0
   -2.1508    0.0156   -1.2224 C   0  0  0  0  0  0  0  0  0  0  0  0
   -2.8818    0.0298   -2.5161 C   0  0  0  0  0  0  0  0  0  0  0  0
    1.3980   -0.0000    0.0000 N   0  0  0  0  0  0  0  0  0  0  0  0
    2.0872   -0.0000   -1.2967 C   0  0  0  0  0  0  0  0  0  0  0  0
    3.5208    0.5126   -1.1431 C   0  0  0  0  0  0  0  0  0  0  0  0
    4.2421   -0.2425   -0.1112 N   0  0  0  0  0  0  0  0  0  0  0  0
    5.6158    0.2142   -0.0129 C   0  0  0  0  0  0  0  0  0  0  0  0
    6.3416    0.2935   -1.2900 C   0  0  0  0  0  0  0  0  0  0  0  0
    6.4058    1.3355   -2.0942 N   0  0  0  0  0  0  0  0  0  0  0  0
    7.1887    0.9388   -3.1519 C   0  0  0  0  0  0  0  0  0  0  0  0
    7.5837    1.6481   -4.2950 C   0  0  0  0  0  0  0  0  0  0  0  0
    8.3947    0.9891   -5.2245 C   0  0  0  0  0  0  0  0  0  0  0  0
    8.8151   -0.3345   -5.0489 C   0  0  0  0  0  0  0  0  0  0  0  0
    8.4228   -1.0480   -3.9084 C   0  0  0  0  0  0  0  0  0  0  0  0
    7.6119   -0.3748   -2.9880 C   0  0  0  0  0  0  0  0  0  0  0  0
    7.0593   -0.7635   -1.7942 N   0  0  0  0  0  0  0  0  0  0  0  0
    3.5584   -0.1010    1.1800 C   0  0  0  0  0  0  0  0  0  0  0  0
    2.1250   -0.6326    1.1049 C   0  0  0  0  0  0  0  0  0  0  0  0
   -4.7302   -0.0006    1.0020 H   0  0  0  0  0  0  0  0  0  0  0  0
   -4.7405   -0.8805   -0.5446 H   0  0  0  0  0  0  0  0  0  0  0  0
   -4.7412    0.8845   -0.5310 H   0  0  0  0  0  0  0  0  0  0  0  0
   -2.6804    0.0063    2.1292 H   0  0  0  0  0  0  0  0  0  0  0  0
   -0.2591    0.0073    2.1584 H   0  0  0  0  0  0  0  0  0  0  0  0
   -0.2109    0.0194   -2.1390 H   0  0  0  0  0  0  0  0  0  0  0  0
   -2.1776    0.0364   -3.3532 H   0  0  0  0  0  0  0  0  0  0  0  0
   -3.5286    0.9091   -2.5921 H   0  0  0  0  0  0  0  0  0  0  0  0
   -3.5180   -0.8556   -2.6176 H   0  0  0  0  0  0  0  0  0  0  0  0
    2.0949   -1.0221   -1.6977 H   0  0  0  0  0  0  0  0  0  0  0  0
    1.5913    0.6307   -2.0411 H   0  0  0  0  0  0  0  0  0  0  0  0
    3.5040    1.5838   -0.9003 H   0  0  0  0  0  0  0  0  0  0  0  0
    4.0287    0.4048   -2.1093 H   0  0  0  0  0  0  0  0  0  0  0  0
    6.1677   -0.3905    0.7167 H   0  0  0  0  0  0  0  0  0  0  0  0
    5.5949    1.2253    0.4133 H   0  0  0  0  0  0  0  0  0  0  0  0
    7.2734    2.6746   -4.4584 H   0  0  0  0  0  0  0  0  0  0  0  0
    8.7107    1.5252   -6.1175 H   0  0  0  0  0  0  0  0  0  0  0  0
    9.4449   -0.8094   -5.7953 H   0  0  0  0  0  0  0  0  0  0  0  0
    8.7175   -2.0734   -3.7208 H   0  0  0  0  0  0  0  0  0  0  0  0
    7.1613   -1.6717   -1.3611 H   0  0  0  0  0  0  0  0  0  0  0  0
    4.0937   -0.6666    1.9523 H   0  0  0  0  0  0  0  0  0  0  0  0
    3.5437    0.9507    1.4970 H   0  0  0  0  0  0  0  0  0  0  0  0
    2.1348   -1.7217    0.9688 H   0  0  0  0  0  0  0  0  0  0  0  0
    1.6454   -0.4126    2.0666 H   0  0  0  0  0  0  0  0  0  0  0  0
  1  2  1  0
  2  3  2  0
  3  4  1  0
  4  5  2  0
  5  6  1  0
  6  7  2  0
  7  8  1  0
  5  9  1  0
  9 10  1  0
 10 11  1  0
 11 12  1  0
 12 13  1  0
 13 14  1  0
 14 15  2  0
 15 16  1  0
 16 17  2  0
 17 18  1  0
 18 19  2  0
 19 20  1  0
 20 21  2  0
 21 22  1  0
 12 23  1  0
 23 24  1  0
  7  2  1  0
 24  9  1  0
 22 14  1  0
 21 16  1  0
  1 25  1  0
  1 26  1  0
  1 27  1  0
  3 28  1  0
  4 29  1  0
  6 30  1  0
  8 31  1  0
  8 32  1  0
  8 33  1  0
 10 34  1  0
 10 35  1  0
 11 36  1  0
 11 37  1  0
 13 38  1  0
 13 39  1  0
 17 40  1  0
 18 41  1  0
 19 42  1  0
 20 43  1  0
 22 44  1  0
 23 45  1  0
 23 46  1  0
 24 47  1  0
 24 48  1  0
M  END
>  <_MoleculeID>  (61) 
smi7

>  <_InputIndex>  (61) 
7

>  <_InputSMILES>  (61) 
Cc1ccc(cc1C)N1CCN(Cc2nc3ccccc3[nH]2)CC1

>  <_InputInChIKey>  (61) 
SAQMCVDGOIRQTC-UHFFFAOYSA-N

>  <_SMILES>  (61) 
Cc1ccc(N2CCN(Cc3nc4ccccc4[nH]3)CC2)cc1C

>  <_InChIKey>  (61) 
SAQMCVDGOIRQTC-UHFFFAOYSA-N

$$$$
smi7_conf2
     RDKit          3D

 48 51  0  0  0  0  0  0  0  0999 V2000
   -4.3480   -0.0023   -0.0230 C   0  0  0  0  0  0  0  0  0  0  0  0
   -2.8620   -0.0019   -0.0232 C   0  0  0  0  0  0  0  0  0  0  0  0
   -2.1508    0.0006    1.1794 C   0  0  0  0  0  0  0  0  0  0  0  0
   -0.7481   -0.0000    1.1875 C   0  0  0  0  0  0  0  0  0  0  0  0
    0.0000    0.0000    0.0000 C   0  0  0  0  0  0  0  0  0  0  0  0
   -0.7495    0.0122   -1.1922 C   0  0  0  0  0  0  0  0  0  0  0  0
   -2.1508    0.0156   -1.2224 C   0  0  0  0  0  0  0  0  0  0  0  0
   -2.8818    0.0298   -2.5161 C   0  0  0  0  0  0  0  0  0  0  0  0
    1.3980   -0.0000    0.0000 N   0  0  0  0  0  0  0  0  0  0  0  0
    2.0872   -0.0000   -1.2967 C   0  0  0  0  0  0  0  0  0  0  0  0
    3.5208   -0.5126   -1.1431 C   0  0  0  0  0  0  0  0  0  0  0  0
    4.2421    0.2425   -0.1112 N   0  0  0  0  0  0  0  0  0  0  0  0
    5.6158   -0.2142   -0.0129 C   0  0  0  0  0  0  0  0  0  0  0  0
    5.7886   -1.5595    0.5564 C   0  0  0  0  0  0  0  0  0  0  0  0
    5.8110   -2.6974   -0.1080 N   0  0  0  0  0  0  0  0  0  0  0  0
    5.9932   -3.6757    0.8398 C   0  0  0  0  0  0  0  0  0  0  0  0
    6.0906   -5.0665    0.6906 C   0  0  0  0  0  0  0  0  0  0  0  0
    6.2779   -5.8354    1.8436 C   0  0  0  0  0  0  0  0  0  0  0  0
    6.3689   -5.2659    3.1192 C   0  0  0  0  0  0  0  0  0  0  0  0
    6.2718   -3.8766    3.2739 C   0  0  0  0  0  0  0  0  0  0  0  0
    6.0848   -3.1213    2.1109 C   0  0  0  0  0  0  0  0  0  0  0  0
    5.9518   -1.7719    1.9035 N   0  0  0  0  0  0  0  0  0  0  0  0
    3.5584    0.1010    1.1800 C   0  0  0  0  0  0  0  0  0  0  0  0
    2.1250    0.6326    1.1049 C   0  0  0  0  0  0  0  0  0  0  0  0
   -4.7302   -0.0006    1.0020 H   0  0  0  0  0  0  0  0  0  0  0  0
   -4.7405   -0.8805   -0.5446 H   0  0  0  0  0  0  0  0  0  0  0  0
   -4.7412    0.8845   -0.5310 H   0  0  0  0  0  0  0  0  0  0  0  0
   -2.6804    0.0063    2.1292 H   0  0  0  0  0  0  0  0  0  0  0  0
   -0.2591    0.0073    2.1584 H   0  0  0  0  0  0  0  0  0  0  0  0
   -0.2109    0.0194   -2.1390 H   0  0  0  0  0  0  0  0  0  0  0  0
   -2.1776    0.0364   -3.3532 H   0  0  0  0  0  0  0  0  0  0  0  0
   -3.5286    0.9091   -2.5921 H   0  0  0  0  0  0  0  0  0  0  0  0
   -3.5180   -0.8556   -2.6176 H   0  0  0  0  0  0  0  0  0  0  0  0
    2.0949    1.0221   -1.6977 H   0  0  0  0  0  0  0  0  0  0  0  0
    1.5913   -0.6307   -2.0411 H   0  0  0  0  0  0  0  0  0  0  0  0
    3.5040   -1.5838   -0.9003 H   0  0  0  0  0  0  0  0  0  0  0  0
    4.0287   -0.4048   -2.1093 H   0  0  0  0  0  0  0  0  0  0  0  0
    6.2252    0.5222    0.5247 H   0  0  0  0  0  0  0  0  0  0  0  0
    6.0272   -0.2356   -1.0301 H   0  0  0  0  0  0  0  0  0  0  0  0
    6.0235   -5.5362   -0.2850 H   0  0  0  0  0  0  0  0  0  0  0  0
    6.3557   -6.9166    1.7457 H   0  0  0  0  0  0  0  0  0  0  0  0
    6.5146   -5.8993    3.9891 H   0  0  0  0  0  0  0  0  0  0  0  0
    6.3347   -3.3820    4.2356 H   0  0  0  0  0  0  0  0  0  0  0  0
    5.9694   -1.0572    2.6189 H   0  0  0  0  0  0  0  0  0  0  0  0
    4.0937    0.6666    1.9523 H   0  0  0  0  0  0  0  0  0  0  0  0
    3.5437   -0.9507    1.4970 H   0  0  0  0  0  0  0  0  0  0  0  0
    2.1348    1.7217    0.9688 H   0  0  0  0  0  0  0  0  0  0  0  0
    1.6454    0.4126    2.0666 H   0  0  0  0  0  0  0  0  0  0  0  0
  1  2  1  0
  2  3  2  0
  3  4  1  0
  4  5  2  0
  5  6  1  0
  6  7  2  0
  7  8  1  0
  5  9  1  0
  9 10  1  0
 10 11  1  0
 11 12  1  0
 12 13  1  0
 13 14  1  0
 14 15  2  0
 15 16  1  0
 16 17  2  0
 17 18  1  0
 18 19  2  0
 19 20  1  0
 20 21  2  0
 21 22  1  0
 12 23  1  0
 23 24  1  0
  7  2  1  0
 24  9  1  0
 22 14  1  0
 21 16  1  0
  1 25  1  0
  1 26  1  0
  1 27  1  0
  3 28  1  0
  4 29  1  0
  6 30  1  0
  8 31  1  0
  8 32  1  0
  8 33  1  0
 10 34  1  0
 10 35  1  0
 11 36  1  0
 11 37  1  0
 13 38  1  0
 13 39  1  0
 17 40  1  0
 18 41  1  0
 19 42  1  0
 20 43  1  0
 22 44  1  0
 23 45  1  0
 23 46  1  0
 24 47  1  0
 24 48  1  0
M  END
>  <_MoleculeID>  (62) 
smi7

>  <_InputIndex>  (62) 
7

>  <_InputSMILES>  (62) 
Cc1ccc(cc1C)N1CCN(Cc2nc3ccccc3[nH]2)CC1

>  <_InputInChIKey>  (62) 
SAQMCVDGOIRQTC-UHFFFAOYSA-N

>  <_SMILES>  (62) 
Cc1ccc(N2CCN(Cc3nc4ccccc4[nH]3)CC2)cc1C

>  <_InChIKey>  (62) 
SAQMCVDGOIRQTC-UHFFFAOYSA-N

$$$$
smi7_conf3
     RDKit          3D

 48 51  0  0  0  0  0  0  0  0999 V2000
   -4.3480   -0.0023   -0.0230 C   0  0  0  0  0  0  0  0  0  0  0  0
   -2.8620   -0.0019   -0.0232 C   0  0  0  0  0  0  0  0  0  0  0  0
   -2.1508    0.0006    1.1794 C   0  0  0  0  0  0  0  0  0  0  0  0
   -0.7481   -0.0000    1.1875 C   0  0  0  0  0  0  0  0  0  0  0  0
    0.0000    0.0000    0.0000 C   0  0  0  0  0  0  0  0  0  0  0  0
   -0.7495    0.0122   -1.1922 C   0  0  0  0  0  0  0  0  0  0  0  0
   -2.1508    0.0156   -1.2224 C   0  0  0  0  0  0  0  0  0  0  0  0
   -2.8818    0.0298   -2.5161 C   0  0  0  0  0  0  0  0  0  0  0  0
    1.3980    0.0000    0.0000 N   0  0  0  0  0  0  0  0  0  0  0  0
    2.1555    0.0000    1.2431 C   0  0  0  0  0  0  0  0  0  0  0  0
    3.3580   -0.9486    1.1486 C   0  0  0  0  0  0  0  0  0  0  0  0
    3.9962   -0.9967   -0.1747 N   0  0  0  0  0  0  0  0  0  0  0  0
    5.4305   -1.1889   -0.0695 C   0  0  0  0  0  0  0  0  0  0  0  0
    5.8509   -2.5195    0.3960 C   0  0  0  0  0  0  0  0  0  0  0  0
    5.0624   -3.5253    0.7173 N   0  0  0  0  0  0  0  0  0  0  0  0
    5.9010   -4.5482    1.0906 C   0  0  0  0  0  0  0  0  0  0  0  0
    5.5988   -5.8461    1.5266 C   0  0  0  0  0  0  0  0  0  0  0  0
    6.6652   -6.6926    1.8457 C   0  0  0  0  0  0  0  0  0  0  0  0
    8.0015   -6.2878    1.7441 C   0  0  0  0  0  0  0  0  0  0  0  0
    8.3089   -4.9916    1.3093 C   0  0  0  0  0  0  0  0  0  0  0  0
    7.2311   -4.1570    0.9937 C   0  0  0  0  0  0  0  0  0  0  0  0
    7.1726   -2.8608    0.5488 N   0  0  0  0  0  0  0  0  0  0  0  0
    3.6583    0.1612   -0.9998 C   0  0  0  0  0  0  0  0  0  0  0  0
    2.1461    0.1939   -1.2398 C   0  0  0  0  0  0  0  0  0  0  0  0
   -4.7302   -0.0006    1.0020 H   0  0  0  0  0  0  0  0  0  0  0  0
   -4.7405   -0.8805   -0.5446 H   0  0  0  0  0  0  0  0  0  0  0  0
   -4.7412    0.8845   -0.5310 H   0  0  0  0  0  0  0  0  0  0  0  0
   -2.6804    0.0063    2.1292 H   0  0  0  0  0  0  0  0  0  0  0  0
   -0.2591    0.0073    2.1584 H   0  0  0  0  0  0  0  0  0  0  0  0
   -0.2109    0.0194   -2.1390 H   0  0  0  0  0  0  0  0  0  0  0  0
   -2.1776    0.0364   -3.3532 H   0  0  0  0  0  0  0  0  0  0  0  0
   -3.5286    0.9091   -2.5921 H   0  0  0  0  0  0  0  0  0  0  0  0
   -3.5180   -0.8556   -2.6176 H   0  0  0  0  0  0  0  0  0  0  0  0
    1.5272   -0.3009    2.0908 H   0  0  0  0  0  0  0  0  0  0  0  0
    2.4987    1.0219    1.4487 H   0  0  0  0  0  0  0  0  0  0  0  0
    4.0688   -0.6586    1.9335 H   0  0  0  0  0  0  0  0  0  0  0  0
    3.0276   -1.9668    1.3881 H   0  0  0  0  0  0  0  0  0  0  0  0
    5.8776   -0.3976    0.5443 H   0  0  0  0  0  0  0  0  0  0  0  0
    5.8543   -1.0454   -1.0716 H   0  0  0  0  0  0  0  0  0  0  0  0
    4.5731   -6.1878    1.6155 H   0  0  0  0  0  0  0  0  0  0  0  0
    6.4484   -7.7036    2.1857 H   0  0  0  0  0  0  0  0  0  0  0  0
    8.8003   -6.9768    2.0020 H   0  0  0  0  0  0  0  0  0  0  0  0
    9.3235   -4.6246    1.2122 H   0  0  0  0  0  0  0  0  0  0  0  0
    7.9654   -2.2599    0.3664 H   0  0  0  0  0  0  0  0  0  0  0  0
    4.1578    0.1013   -1.9745 H   0  0  0  0  0  0  0  0  0  0  0  0
    3.9925    1.0926   -0.5239 H   0  0  0  0  0  0  0  0  0  0  0  0
    1.8723   -0.5980   -1.9487 H   0  0  0  0  0  0  0  0  0  0  0  0
    1.8738    1.1534   -1.6957 H   0  0  0  0  0  0  0  0  0  0  0  0
  1  2  1  0
  2  3  2  0
  3  4  1  0
  4  5  2  0
  5  6  1  0
  6  7  2  0
  7  8  1  0
  5  9  1  0
  9 10  1  0
 10 11  1  0
 11 12  1  0
 12 13  1  0
 13 14  1  0
 14 15  2  0
 15 16  1  0
 16 17  2  0
 17 18  1  0
 18 19  2  0
 19 20  1  0
 20 21  2  0
 21 22  1  0
 12 23  1  0
 23 24  1  0
  7  2  1  0
 24  9  1  0
 22 14  1  0
 21 16  1  0
  1 25  1  0
  1 26  1  0
  1 27  1  0
  3 28  1  0
  4 29  1  0
  6 30  1  0
  8 31  1  0
  8 32  1  0
  8 33  1  0
 10 34  1  0
 10 35  1  0
 11 36  1  0
 11 37  1  0
 13 38  1  0
 13 39  1  0
 17 40  1  0
 18 41  1  0
 19 42  1  0
 20 43  1  0
 22 44  1  0
 23 45  1  0
 23 46  1  0
 24 47  1  0
 24 48  1  0
M  END
>  <_MoleculeID>  (63) 
smi7

>  <_InputIndex>  (63) 
7

>  <_InputSMILES>  (63) 
Cc1ccc(cc1C)N1CCN(Cc2nc3ccccc3[nH]2)CC1

>  <_InputInChIKey>  (63) 
SAQMCVDGOIRQTC-UHFFFAOYSA-N

>  <_SMILES>  (63) 
Cc1ccc(N2CCN(Cc3nc4ccccc4[nH]3)CC2)cc1C

>  <_InChIKey>  (63) 
SAQMCVDGOIRQTC-UHFFFAOYSA-N

$$$$
smi7_conf4
     RDKit          3D

 48 51  0  0  0  0  0  0  0  0999 V2000
   -4.3480   -0.0023   -0.0230 C   0  0  0  0  0  0  0  0  0  0  0  0
   -2.8620   -0.0019   -0.0232 C   0  0  0  0  0  0  0  0  0  0  0  0
   -2.1508    0.0006    1.1794 C   0  0  0  0  0  0  0  0  0  0  0  0
   -0.7481   -0.0000    1.1875 C   0  0  0  0  0  0  0  0  0  0  0  0
    0.0000    0.0000    0.0000 C   0  0  0  0  0  0  0  0  0  0  0  0
   -0.7495    0.0122   -1.1922 C   0  0  0  0  0  0  0  0  0  0  0  0
   -2.1508    0.0156   -1.2224 C   0  0  0  0  0  0  0  0  0  0  0  0
   -2.8818    0.0298   -2.5161 C   0  0  0  0  0  0  0  0  0  0  0  0
    1.3980    0.0000    0.0000 N   0  0  0  0  0  0  0  0  0  0  0  0
    2.1551   -0.0000    1.2485 C   0  0  0  0  0  0  0  0  0  0  0  0
    3.5595   -0.5572    1.0120 C   0  0  0  0  0  0  0  0  0  0  0  0
    4.3101    0.2448    0.0370 N   0  0  0  0  0  0  0  0  0  0  0  0
    5.4584   -0.4900   -0.4599 C   0  0  0  0  0  0  0  0  0  0  0  0
    6.3137   -1.0892    0.5761 C   0  0  0  0  0  0  0  0  0  0  0  0
    6.1909   -2.2935    1.0972 N   0  0  0  0  0  0  0  0  0  0  0  0
    7.2064   -2.4040    2.0167 C   0  0  0  0  0  0  0  0  0  0  0  0
    7.5447   -3.4719    2.8599 C   0  0  0  0  0  0  0  0  0  0  0  0
    8.6441   -3.3104    3.7090 C   0  0  0  0  0  0  0  0  0  0  0  0
    9.4022   -2.1340    3.7403 C   0  0  0  0  0  0  0  0  0  0  0  0
    9.0680   -1.0636    2.8999 C   0  0  0  0  0  0  0  0  0  0  0  0
    7.9659   -1.2408    2.0562 C   0  0  0  0  0  0  0  0  0  0  0  0
    7.3772   -0.4188    1.1292 N   0  0  0  0  0  0  0  0  0  0  0  0
    3.4753    0.7689   -1.0527 C   0  0  0  0  0  0  0  0  0  0  0  0
    2.1575    0.0158   -1.2467 C   0  0  0  0  0  0  0  0  0  0  0  0
   -4.7302   -0.0006    1.0020 H   0  0  0  0  0  0  0  0  0  0  0  0
   -4.7405   -0.8805   -0.5446 H   0  0  0  0  0  0  0  0  0  0  0  0
   -4.7412    0.8845   -0.5310 H   0  0  0  0  0  0  0  0  0  0  0  0
   -2.6804    0.0063    2.1292 H   0  0  0  0  0  0  0  0  0  0  0  0
   -0.2591    0.0073    2.1584 H   0  0  0  0  0  0  0  0  0  0  0  0
   -0.2109    0.0194   -2.1390 H   0  0  0  0  0  0  0  0  0  0  0  0
   -2.1776    0.0364   -3.3532 H   0  0  0  0  0  0  0  0  0  0  0  0
   -3.5286    0.9091   -2.5921 H   0  0  0  0  0  0  0  0  0  0  0  0
   -3.5180   -0.8556   -2.6176 H   0  0  0  0  0  0  0  0  0  0  0  0
    1.6484   -0.6193    1.9988 H   0  0  0  0  0  0  0  0  0  0  0  0
    2.2081    1.0209    1.6466 H   0  0  0  0  0  0  0  0  0  0  0  0
    4.1064   -0.5723    1.9620 H   0  0  0  0  0  0  0  0  0  0  0  0
    3.4700   -1.5984    0.6724 H   0  0  0  0  0  0  0  0  0  0  0  0
    6.0460    0.1359   -1.1421 H   0  0  0  0  0  0  0  0  0  0  0  0
    5.0779   -1.3098   -1.0825 H   0  0  0  0  0  0  0  0  0  0  0  0
    6.9757   -4.3955    2.8581 H   0  0  0  0  0  0  0  0  0  0  0  0
    8.9206   -4.1297    4.3701 H   0  0  0  0  0  0  0  0  0  0  0  0
   10.2488   -2.0495    4.4150 H   0  0  0  0  0  0  0  0  0  0  0  0
    9.6182   -0.1306    2.8820 H   0  0  0  0  0  0  0  0  0  0  0  0
    7.6740    0.5192    0.8947 H   0  0  0  0  0  0  0  0  0  0  0  0
    4.0222    0.8054   -2.0032 H   0  0  0  0  0  0  0  0  0  0  0  0
    3.2435    1.8134   -0.8058 H   0  0  0  0  0  0  0  0  0  0  0  0
    2.3477   -1.0135   -1.5747 H   0  0  0  0  0  0  0  0  0  0  0  0
    1.5801    0.5094   -2.0382 H   0  0  0  0  0  0  0  0  0  0  0  0
  1  2  1  0
  2  3  2  0
  3  4  1  0
  4  5  2  0
  5  6  1  0
  6  7  2  0
  7  8  1  0
  5  9  1  0
  9 10  1  0
 10 11  1  0
 11 12  1  0
 12 13  1  0
 13 14  1  0
 14 15  2  0
 15 16  1  0
 16 17  2  0
 17 18  1  0
 18 19  2  0
 19 20  1  0
 20 21  2  0
 21 22  1  0
 12 23  1  0
 23 24  1  0
  7  2  1  0
 24  9  1  0
 22 14  1  0
 21 16  1  0
  1 25  1  0
  1 26  1  0
  1 27  1  0
  3 28  1  0
  4 29  1  0
  6 30  1  0
  8 31  1  0
  8 32  1  0
  8 33  1  0
 10 34  1  0
 10 35  1  0
 11 36  1  0
 11 37  1  0
 13 38  1  0
 13 39  1  0
 17 40  1  0
 18 41  1  0
 19 42  1  0
 20 43  1  0
 22 44  1  0
 23 45  1  0
 23 46  1  0
 24 47  1  0
 24 48  1  0
M  END
>  <_MoleculeID>  (64) 
smi7

>  <_InputIndex>  (64) 
7

>  <_InputSMILES>  (64) 
Cc1ccc(cc1C)N1CCN(Cc2nc3ccccc3[nH]2)CC1

>  <_InputInChIKey>  (64) 
SAQMCVDGOIRQTC-UHFFFAOYSA-N

>  <_SMILES>  (64) 
Cc1ccc(N2CCN(Cc3nc4ccccc4[nH]3)CC2)cc1C

>  <_InChIKey>  (64) 
SAQMCVDGOIRQTC-UHFFFAOYSA-N

$$$$
smi7_conf5
     RDKit          3D

 48 51  0  0  0  0  0  0  0  0999 V2000
   -4.3480   -0.0023   -0.0230 C   0  0  0  0  0  0  0  0  0  0  0  0
   -2.8620   -0.0019   -0.0232 C   0  0  0  0  0  0  0  0  0  0  0  0
   -2.1508    0.0006    1.1794 C   0  0  0  0  0  0  0  0  0  0  0  0
   -0.7481   -0.0000    1.1875 C   0  0  0  0  0  0  0  0  0  0  0  0
    0.0000    0.0000    0.0000 C   0  0  0  0  0  0  0  0  0  0  0  0
   -0.7495    0.0122   -1.1922 C   0  0  0  0  0  0  0  0  0  0  0  0
   -2.1508    0.0156   -1.2224 C   0  0  0  0  0  0  0  0  0  0  0  0
   -2.8818    0.0298   -2.5161 C   0  0  0  0  0  0  0  0  0  0  0  0
    1.3980   -0.0000    0.0000 N   0  0  0  0  0  0  0  0  0  0  0  0
    2.1555   -0.0000   -1.2431 C   0  0  0  0  0  0  0  0  0  0  0  0
    3.3580   -0.9486   -1.1486 C   0  0  0  0  0  0  0  0  0  0  0  0
    3.9962   -0.9967    0.1747 N   0  0  0  0  0  0  0  0  0  0  0  0
    5.4305   -1.1889    0.0695 C   0  0  0  0  0  0  0  0  0  0  0  0
    5.8509   -2.5195   -0.3960 C   0  0  0  0  0  0  0  0  0  0  0  0
    6.1033   -3.5719    0.3559 N   0  0  0  0  0  0  0  0  0  0  0  0
    6.4581   -4.5731   -0.5161 C   0  0  0  0  0  0  0  0  0  0  0  0
    6.8277   -5.9011   -0.2594 C   0  0  0  0  0  0  0  0  0  0  0  0
    7.1433   -6.7140   -1.3527 C   0  0  0  0  0  0  0  0  0  0  0  0
    7.1016   -6.2475   -2.6720 C   0  0  0  0  0  0  0  0  0  0  0  0
    6.7333   -4.9211   -2.9339 C   0  0  0  0  0  0  0  0  0  0  0  0
    6.4203   -4.1207   -1.8297 C   0  0  0  0  0  0  0  0  0  0  0  0
    6.0304   -2.8097   -1.7265 N   0  0  0  0  0  0  0  0  0  0  0  0
    3.6583    0.1612    0.9998 C   0  0  0  0  0  0  0  0  0  0  0  0
    2.1461    0.1939    1.2398 C   0  0  0  0  0  0  0  0  0  0  0  0
   -4.7302   -0.0006    1.0020 H   0  0  0  0  0  0  0  0  0  0  0  0
   -4.7405   -0.8805   -0.5446 H   0  0  0  0  0  0  0  0  0  0  0  0
   -4.7412    0.8845   -0.5310 H   0  0  0  0  0  0  0  0  0  0  0  0
   -2.6804    0.0063    2.1292 H   0  0  0  0  0  0  0  0  0  0  0  0
   -0.2591    0.0073    2.1584 H   0  0  0  0  0  0  0  0  0  0  0  0
   -0.2109    0.0194   -2.1390 H   0  0  0  0  0  0  0  0  0  0  0  0
   -2.1776    0.0364   -3.3532 H   0  0  0  0  0  0  0  0  0  0  0  0
   -3.5286    0.9091   -2.5921 H   0  0  0  0  0  0  0  0  0  0  0  0
   -3.5180   -0.8556   -2.6176 H   0  0  0  0  0  0  0  0  0  0  0  0
    1.5272   -0.3009   -2.0908 H   0  0  0  0  0  0  0  0  0  0  0  0
    2.4987    1.0219   -1.4487 H   0  0  0  0  0  0  0  0  0  0  0  0
    4.0688   -0.6586   -1.9335 H   0  0  0  0  0  0  0  0  0  0  0  0
    3.0276   -1.9668   -1.3881 H   0  0  0  0  0  0  0  0  0  0  0  0
    5.9207   -0.9297    1.0156 H   0  0  0  0  0  0  0  0  0  0  0  0
    5.8066   -0.4561   -0.6558 H   0  0  0  0  0  0  0  0  0  0  0  0
    6.8692   -6.2906    0.7522 H   0  0  0  0  0  0  0  0  0  0  0  0
    7.4321   -7.7476   -1.1714 H   0  0  0  0  0  0  0  0  0  0  0  0
    7.3545   -6.9120   -3.4928 H   0  0  0  0  0  0  0  0  0  0  0  0
    6.6843   -4.5064   -3.9335 H   0  0  0  0  0  0  0  0  0  0  0  0
    5.8994   -2.1674   -2.4967 H   0  0  0  0  0  0  0  0  0  0  0  0
    4.1578    0.1013    1.9745 H   0  0  0  0  0  0  0  0  0  0  0  0
    3.9925    1.0926    0.5239 H   0  0  0  0  0  0  0  0  0  0  0  0
    1.8723   -0.5980    1.9487 H   0  0  0  0  0  0  0  0  0  0  0  0
    1.8738    1.1534    1.6957 H   0  0  0  0  0  0  0  0  0  0  0  0
  1  2  1  0
  2  3  2  0
  3  4  1  0
  4  5  2  0
  5  6  1  0
  6  7  2  0
  7  8  1  0
  5  9  1  0
  9 10  1  0
 10 11  1  0
 11 12  1  0
 12 13  1  0
 13 14  1  0
 14 15  2  0
 15 16  1  0
 16 17  2  0
 17 18  1  0
 18 19  2  0
 19 20  1  0
 20 21  2  0
 21 22  1  0
 12 23  1  0
 23 24  1  0
  7  2  1  0
 24  9  1  0
 22 14  1  0
 21 16  1  0
  1 25  1  0
  1 26  1  0
  1 27  1  0
  3 28  1  0
  4 29  1  0
  6 30  1  0
  8 31  1  0
  8 32  1  0
  8 33  1  0
 10 34  1  0
 10 35  1  0
 11 36  1  0
 11 37  1  0
 13 38  1  0
 13 39  1  0
 17 40  1  0
 18 41  1  0
 19 42  1  0
 20 43  1  0
 22 44  1  0
 23 45  1  0
 23 46  1  0
 24 47  1  0
 24 48  1  0
M  END
>  <_MoleculeID>  (65) 
smi7

>  <_InputIndex>  (65) 
7

>  <_InputSMILES>  (65) 
Cc1ccc(cc1C)N1CCN(Cc2nc3ccccc3[nH]2)CC1

>  <_InputInChIKey>  (65) 
SAQMCVDGOIRQTC-UHFFFAOYSA-N

>  <_SMILES>  (65) 
Cc1ccc(N2CCN(Cc3nc4ccccc4[nH]3)CC2)cc1C

>  <_InChIKey>  (65) 
SAQMCVDGOIRQTC-UHFFFAOYSA-N

$$$$
smi7_conf6
     RDKit          3D

 48 51  0  0  0  0  0  0  0  0999 V2000
   -4.3480   -0.0023   -0.0230 C   0  0  0  0  0  0  0  0  0  0  0  0
   -2.8620   -0.0019   -0.0232 C   0  0  0  0  0  0  0  0  0  0  0  0
   -2.1508    0.0006    1.1794 C   0  0  0  0  0  0  0  0  0  0  0  0
   -0.7481   -0.0000    1.1875 C   0  0  0  0  0  0  0  0  0  0  0  0
    0.0000    0.0000    0.0000 C   0  0  0  0  0  0  0  0  0  0  0  0
   -0.7495    0.0122   -1.1922 C   0  0  0  0  0  0  0  0  0  0  0  0
   -2.1508    0.0156   -1.2224 C   0  0  0  0  0  0  0  0  0  0  0  0
   -2.8818    0.0298   -2.5161 C   0  0  0  0  0  0  0  0  0  0  0  0
    1.3980   -0.0000    0.0000 N   0  0  0  0  0  0  0  0  0  0  0  0
    2.1462   -0.0000   -1.2548 C   0  0  0  0  0  0  0  0  0  0  0  0
    3.6044   -0.4189   -1.0447 C   0  0  0  0  0  0  0  0  0  0  0  0
    3.6515   -1.6253   -0.2211 N   0  0  0  0  0  0  0  0  0  0  0  0
    4.9907   -2.1784   -0.1441 C   0  0  0  0  0  0  0  0  0  0  0  0
    5.0825   -3.5115    0.4710 C   0  0  0  0  0  0  0  0  0  0  0  0
    5.2616   -3.7769    1.7494 N   0  0  0  0  0  0  0  0  0  0  0  0
    5.2822   -5.1478    1.8434 C   0  0  0  0  0  0  0  0  0  0  0  0
    5.4439   -5.9706    2.9672 C   0  0  0  0  0  0  0  0  0  0  0  0
    5.4239   -7.3551    2.7711 C   0  0  0  0  0  0  0  0  0  0  0  0
    5.2504   -7.9319    1.5074 C   0  0  0  0  0  0  0  0  0  0  0  0
    5.0888   -7.1142    0.3810 C   0  0  0  0  0  0  0  0  0  0  0  0
    5.1108   -5.7314    0.5937 C   0  0  0  0  0  0  0  0  0  0  0  0
    4.9855   -4.6680   -0.2636 N   0  0  0  0  0  0  0  0  0  0  0  0
    3.0750   -1.4158    1.1147 C   0  0  0  0  0  0  0  0  0  0  0  0
    2.1557   -0.1924    1.2279 C   0  0  0  0  0  0  0  0  0  0  0  0
   -4.7302   -0.0006    1.0020 H   0  0  0  0  0  0  0  0  0  0  0  0
   -4.7405   -0.8805   -0.5446 H   0  0  0  0  0  0  0  0  0  0  0  0
   -4.7412    0.8845   -0.5310 H   0  0  0  0  0  0  0  0  0  0  0  0
   -2.6804    0.0063    2.1292 H   0  0  0  0  0  0  0  0  0  0  0  0
   -0.2591    0.0073    2.1584 H   0  0  0  0  0  0  0  0  0  0  0  0
   -0.2109    0.0194   -2.1390 H   0  0  0  0  0  0  0  0  0  0  0  0
   -2.1776    0.0364   -3.3532 H   0  0  0  0  0  0  0  0  0  0  0  0
   -3.5286    0.9091   -2.5921 H   0  0  0  0  0  0  0  0  0  0  0  0
   -3.5180   -0.8556   -2.6176 H   0  0  0  0  0  0  0  0  0  0  0  0
    1.6653   -0.6935   -1.9565 H   0  0  0  0  0  0  0  0  0  0  0  0
    2.1193    0.9985   -1.7073 H   0  0  0  0  0  0  0  0  0  0  0  0
    4.1752    0.3956   -0.5797 H   0  0  0  0  0  0  0  0  0  0  0  0
    4.0520   -0.6038   -2.0288 H   0  0  0  0  0  0  0  0  0  0  0  0
    5.6684   -1.4703    0.3479 H   0  0  0  0  0  0  0  0  0  0  0  0
    5.3680   -2.2667   -1.1708 H   0  0  0  0  0  0  0  0  0  0  0  0
    5.5805   -5.5523    3.9587 H   0  0  0  0  0  0  0  0  0  0  0  0
    5.5479   -8.0084    3.6327 H   0  0  0  0  0  0  0  0  0  0  0  0
    5.2410   -9.0124    1.3987 H   0  0  0  0  0  0  0  0  0  0  0  0
    4.9514   -7.5051   -0.6199 H   0  0  0  0  0  0  0  0  0  0  0  0
    4.8473   -4.7256   -1.2639 H   0  0  0  0  0  0  0  0  0  0  0  0
    2.5019   -2.3164    1.3670 H   0  0  0  0  0  0  0  0  0  0  0  0
    3.8528   -1.3155    1.8831 H   0  0  0  0  0  0  0  0  0  0  0  0
    1.4892   -0.3231    2.0896 H   0  0  0  0  0  0  0  0  0  0  0  0
    2.7518    0.7086    1.4210 H   0  0  0  0  0  0  0  0  0  0  0  0
  1  2  1  0
  2  3  2  0
  3  4  1  0
  4  5  2  0
  5  6  1  0
  6  7  2  0
  7  8  1  0
  5  9  1  0
  9 10  1  0
 10 11  1  0
 11 12  1  0
 12 13  1  0
 13 14  1  0
 14 15  2  0
 15 16  1  0
 16 17  2  0
 17 18  1  0
 18 19  2  0
 19 20  1  0
 20 21  2  0
 21 22  1  0
 12 23  1  0
 23 24  1  0
  7  2  1  0
 24  9  1  0
 22 14  1  0
 21 16  1  0
  1 25  1  0
  1 26  1  0
  1 27  1  0
  3 28  1  0
  4 29  1  0
  6 30  1  0
  8 31  1  0
  8 32  1  0
  8 33  1  0
 10 34  1  0
 10 35  1  0
 11 36  1  0
 11 37  1  0
 13 38  1  0
 13 39  1  0
 17 40  1  0
 18 41  1  0
 19 42  1  0
 20 43  1  0
 22 44  1  0
 23 45  1  0
 23 46  1  0
 24 47  1  0
 24 48  1  0
M  END
>  <_MoleculeID>  (66) 
smi7

>  <_InputIndex>  (66) 
7

>  <_InputSMILES>  (66) 
Cc1ccc(cc1C)N1CCN(Cc2nc3ccccc3[nH]2)CC1

>  <_InputInChIKey>  (66) 
SAQMCVDGOIRQTC-UHFFFAOYSA-N

>  <_SMILES>  (66) 
Cc1ccc(N2CCN(Cc3nc4ccccc4[nH]3)CC2)cc1C

>  <_InChIKey>  (66) 
SAQMCVDGOIRQTC-UHFFFAOYSA-N

$$$$
smi7_conf7
     RDKit          3D

 48 51  0  0  0  0  0  0  0  0999 V2000
   -4.3480   -0.0023   -0.0230 C   0  0  0  0  0  0  0  0  0  0  0  0
   -2.8620   -0.0019   -0.0232 C   0  0  0  0  0  0  0  0  0  0  0  0
   -2.1508    0.0006    1.1794 C   0  0  0  0  0  0  0  0  0  0  0  0
   -0.7481   -0.0000    1.1875 C   0  0  0  0  0  0  0  0  0  0  0  0
    0.0000    0.0000    0.0000 C   0  0  0  0  0  0  0  0  0  0  0  0
   -0.7495    0.0122   -1.1922 C   0  0  0  0  0  0  0  0  0  0  0  0
   -2.1508    0.0156   -1.2224 C   0  0  0  0  0  0  0  0  0  0  0  0
   -2.8818    0.0298   -2.5161 C   0  0  0  0  0  0  0  0  0  0  0  0
    1.3980    0.0000    0.0000 N   0  0  0  0  0  0  0  0  0  0  0  0
    2.1551    0.0000    1.2485 C   0  0  0  0  0  0  0  0  0  0  0  0
    3.5595    0.5572    1.0120 C   0  0  0  0  0  0  0  0  0  0  0  0
    4.3101   -0.2448    0.0370 N   0  0  0  0  0  0  0  0  0  0  0  0
    5.4584    0.4900   -0.4599 C   0  0  0  0  0  0  0  0  0  0  0  0
    6.4053   -0.2980   -1.2637 C   0  0  0  0  0  0  0  0  0  0  0  0
    6.3066   -1.5772   -1.5647 N   0  0  0  0  0  0  0  0  0  0  0  0
    7.4148   -1.8651   -2.3248 C   0  0  0  0  0  0  0  0  0  0  0  0
    7.8150   -3.0745   -2.9104 C   0  0  0  0  0  0  0  0  0  0  0  0
    9.0064   -3.0826   -3.6427 C   0  0  0  0  0  0  0  0  0  0  0  0
    9.7961   -1.9381   -3.8043 C   0  0  0  0  0  0  0  0  0  0  0  0
    9.4008   -0.7270   -3.2208 C   0  0  0  0  0  0  0  0  0  0  0  0
    8.2066   -0.7352   -2.4916 C   0  0  0  0  0  0  0  0  0  0  0  0
    7.5419    0.2499   -1.8065 N   0  0  0  0  0  0  0  0  0  0  0  0
    3.4753   -0.7689   -1.0527 C   0  0  0  0  0  0  0  0  0  0  0  0
    2.1575   -0.0158   -1.2467 C   0  0  0  0  0  0  0  0  0  0  0  0
   -4.7302   -0.0006    1.0020 H   0  0  0  0  0  0  0  0  0  0  0  0
   -4.7405   -0.8805   -0.5446 H   0  0  0  0  0  0  0  0  0  0  0  0
   -4.7412    0.8845   -0.5310 H   0  0  0  0  0  0  0  0  0  0  0  0
   -2.6804    0.0063    2.1292 H   0  0  0  0  0  0  0  0  0  0  0  0
   -0.2591    0.0073    2.1584 H   0  0  0  0  0  0  0  0  0  0  0  0
   -0.2109    0.0194   -2.1390 H   0  0  0  0  0  0  0  0  0  0  0  0
   -2.1776    0.0364   -3.3532 H   0  0  0  0  0  0  0  0  0  0  0  0
   -3.5286    0.9091   -2.5921 H   0  0  0  0  0  0  0  0  0  0  0  0
   -3.5180   -0.8556   -2.6176 H   0  0  0  0  0  0  0  0  0  0  0  0
    1.6484    0.6193    1.9988 H   0  0  0  0  0  0  0  0  0  0  0  0
    2.2081   -1.0209    1.6466 H   0  0  0  0  0  0  0  0  0  0  0  0
    4.1064    0.5723    1.9620 H   0  0  0  0  0  0  0  0  0  0  0  0
    3.4700    1.5984    0.6724 H   0  0  0  0  0  0  0  0  0  0  0  0
    5.9710    1.0001    0.3646 H   0  0  0  0  0  0  0  0  0  0  0  0
    5.0788    1.2959   -1.1008 H   0  0  0  0  0  0  0  0  0  0  0  0
    7.2239   -3.9776   -2.8021 H   0  0  0  0  0  0  0  0  0  0  0  0
    9.3318   -4.0131   -4.1041 H   0  0  0  0  0  0  0  0  0  0  0  0
   10.7149   -1.9874   -4.3812 H   0  0  0  0  0  0  0  0  0  0  0  0
    9.9721    0.1889   -3.3124 H   0  0  0  0  0  0  0  0  0  0  0  0
    7.8382    1.2126   -1.7156 H   0  0  0  0  0  0  0  0  0  0  0  0
    4.0222   -0.8054   -2.0032 H   0  0  0  0  0  0  0  0  0  0  0  0
    3.2435   -1.8134   -0.8058 H   0  0  0  0  0  0  0  0  0  0  0  0
    2.3477    1.0135   -1.5747 H   0  0  0  0  0  0  0  0  0  0  0  0
    1.5801   -0.5094   -2.0382 H   0  0  0  0  0  0  0  0  0  0  0  0
  1  2  1  0
  2  3  2  0
  3  4  1  0
  4  5  2  0
  5  6  1  0
  6  7  2  0
  7  8  1  0
  5  9  1  0
  9 10  1  0
 10 11  1  0
 11 12  1  0
 12 13  1  0
 13 14  1  0
 14 15  2  0
 15 16  1  0
 16 17  2  0
 17 18  1  0
 18 19  2  0
 19 20  1  0
 20 21  2  0
 21 22  1  0
 12 23  1  0
 23 24  1  0
  7  2  1  0
 24  9  1  0
 22 14  1  0
 21 16  1  0
  1 25  1  0
  1 26  1  0
  1 27  1  0
  3 28  1  0
  4 29  1  0
  6 30  1  0
  8 31  1  0
  8 32  1  0
  8 33  1  0
 10 34  1  0
 10 35  1  0
 11 36  1  0
 11 37  1  0
 13 38  1  0
 13 39  1  0
 17 40  1  0
 18 41  1  0
 19 42  1  0
 20 43  1  0
 22 44  1  0
 23 45  1  0
 23 46  1  0
 24 47  1  0
 24 48  1  0
M  END
>  <_MoleculeID>  (67) 
smi7

>  <_InputIndex>  (67) 
7

>  <_InputSMILES>  (67) 
Cc1ccc(cc1C)N1CCN(Cc2nc3ccccc3[nH]2)CC1

>  <_InputInChIKey>  (67) 
SAQMCVDGOIRQTC-UHFFFAOYSA-N

>  <_SMILES>  (67) 
Cc1ccc(N2CCN(Cc3nc4ccccc4[nH]3)CC2)cc1C

>  <_InChIKey>  (67) 
SAQMCVDGOIRQTC-UHFFFAOYSA-N

$$$$
smi7_conf8
     RDKit          3D

 48 51  0  0  0  0  0  0  0  0999 V2000
   -4.3480   -0.0023   -0.0230 C   0  0  0  0  0  0  0  0  0  0  0  0
   -2.8620   -0.0019   -0.0232 C   0  0  0  0  0  0  0  0  0  0  0  0
   -2.1508    0.0006    1.1794 C   0  0  0  0  0  0  0  0  0  0  0  0
   -0.7481   -0.0000    1.1875 C   0  0  0  0  0  0  0  0  0  0  0  0
    0.0000    0.0000    0.0000 C   0  0  0  0  0  0  0  0  0  0  0  0
   -0.7495    0.0122   -1.1922 C   0  0  0  0  0  0  0  0  0  0  0  0
   -2.1508    0.0156   -1.2224 C   0  0  0  0  0  0  0  0  0  0  0  0
   -2.8818    0.0298   -2.5161 C   0  0  0  0  0  0  0  0  0  0  0  0
    1.3980    0.0000    0.0000 N   0  0  0  0  0  0  0  0  0  0  0  0
    2.1551   -0.0000    1.2485 C   0  0  0  0  0  0  0  0  0  0  0  0
    3.5595   -0.5572    1.0120 C   0  0  0  0  0  0  0  0  0  0  0  0
    4.3101    0.2448    0.0370 N   0  0  0  0  0  0  0  0  0  0  0  0
    5.4584   -0.4900   -0.4599 C   0  0  0  0  0  0  0  0  0  0  0  0
    5.1412   -1.6293   -1.3347 C   0  0  0  0  0  0  0  0  0  0  0  0
    5.0137   -1.6019   -2.6461 N   0  0  0  0  0  0  0  0  0  0  0  0
    4.7164   -2.8917   -3.0159 C   0  0  0  0  0  0  0  0  0  0  0  0
    4.4777   -3.4309   -4.2881 C   0  0  0  0  0  0  0  0  0  0  0  0
    4.1939   -4.7975   -4.3753 C   0  0  0  0  0  0  0  0  0  0  0  0
    4.1422   -5.6269   -3.2488 C   0  0  0  0  0  0  0  0  0  0  0  0
    4.3796   -5.0930   -1.9751 C   0  0  0  0  0  0  0  0  0  0  0  0
    4.6623   -3.7244   -1.9046 C   0  0  0  0  0  0  0  0  0  0  0  0
    4.9368   -2.8965   -0.8459 N   0  0  0  0  0  0  0  0  0  0  0  0
    3.4753    0.7689   -1.0527 C   0  0  0  0  0  0  0  0  0  0  0  0
    2.1575    0.0158   -1.2467 C   0  0  0  0  0  0  0  0  0  0  0  0
   -4.7302   -0.0006    1.0020 H   0  0  0  0  0  0  0  0  0  0  0  0
   -4.7405   -0.8805   -0.5446 H   0  0  0  0  0  0  0  0  0  0  0  0
   -4.7412    0.8845   -0.5310 H   0  0  0  0  0  0  0  0  0  0  0  0
   -2.6804    0.0063    2.1292 H   0  0  0  0  0  0  0  0  0  0  0  0
   -0.2591    0.0073    2.1584 H   0  0  0  0  0  0  0  0  0  0  0  0
   -0.2109    0.0194   -2.1390 H   0  0  0  0  0  0  0  0  0  0  0  0
   -2.1776    0.0364   -3.3532 H   0  0  0  0  0  0  0  0  0  0  0  0
   -3.5286    0.9091   -2.5921 H   0  0  0  0  0  0  0  0  0  0  0  0
   -3.5180   -0.8556   -2.6176 H   0  0  0  0  0  0  0  0  0  0  0  0
    1.6484   -0.6193    1.9988 H   0  0  0  0  0  0  0  0  0  0  0  0
    2.2081    1.0209    1.6466 H   0  0  0  0  0  0  0  0  0  0  0  0
    4.1064   -0.5723    1.9620 H   0  0  0  0  0  0  0  0  0  0  0  0
    3.4700   -1.5984    0.6724 H   0  0  0  0  0  0  0  0  0  0  0  0
    6.1024   -0.7997    0.3720 H   0  0  0  0  0  0  0  0  0  0  0  0
    6.0671    0.2107   -1.0454 H   0  0  0  0  0  0  0  0  0  0  0  0
    4.5106   -2.8129   -5.1790 H   0  0  0  0  0  0  0  0  0  0  0  0
    4.0062   -5.2324   -5.3552 H   0  0  0  0  0  0  0  0  0  0  0  0
    3.9182   -6.6836   -3.3604 H   0  0  0  0  0  0  0  0  0  0  0  0
    4.3522   -5.6868   -1.0695 H   0  0  0  0  0  0  0  0  0  0  0  0
    4.9796   -3.1714    0.1265 H   0  0  0  0  0  0  0  0  0  0  0  0
    4.0222    0.8054   -2.0032 H   0  0  0  0  0  0  0  0  0  0  0  0
    3.2435    1.8134   -0.8058 H   0  0  0  0  0  0  0  0  0  0  0  0
    2.3477   -1.0135   -1.5747 H   0  0  0  0  0  0  0  0  0  0  0  0
    1.5801    0.5094   -2.0382 H   0  0  0  0  0  0  0  0  0  0  0  0
  1  2  1  0
  2  3  2  0
  3  4  1  0
  4  5  2  0
  5  6  1  0
  6  7  2  0
  7  8  1  0
  5  9  1  0
  9 10  1  0
 10 11  1  0
 11 12  1  0
 12 13  1  0
 13 14  1  0
 14 15  2  0
 15 16  1  0
 16 17  2  0
 17 18  1  0
 18 19  2  0
 19 20  1  0
 20 21  2  0
 21 22  1  0
 12 23  1  0
 23 24  1  0
  7  2  1  0
 24  9  1  0
 22 14  1  0
 21 16  1  0
  1 25  1  0
  1 26  1  0
  1 27  1  0
  3 28  1  0
  4 29  1  0
  6 30  1  0
  8 31  1  0
  8 32  1  0
  8 33  1  0
 10 34  1  0
 10 35  1  0
 11 36  1  0
 11 37  1  0
 13 38  1  0
 13 39  1  0
 17 40  1  0
 18 41  1  0
 19 42  1  0
 20 43  1  0
 22 44  1  0
 23 45  1  0
 23 46  1  0
 24 47  1  0
 24 48  1  0
M  END
>  <_MoleculeID>  (68) 
smi7

>  <_InputIndex>  (68) 
7

>  <_InputSMILES>  (68) 
Cc1ccc(cc1C)N1CCN(Cc2nc3ccccc3[nH]2)CC1

>  <_InputInChIKey>  (68) 
SAQMCVDGOIRQTC-UHFFFAOYSA-N

>  <_SMILES>  (68) 
Cc1ccc(N2CCN(Cc3nc4ccccc4[nH]3)CC2)cc1C

>  <_InChIKey>  (68) 
SAQMCVDGOIRQTC-UHFFFAOYSA-N

$$$$
smi7_conf9
     RDKit          3D

 48 51  0  0  0  0  0  0  0  0999 V2000
   -4.3480   -0.0023   -0.0230 C   0  0  0  0  0  0  0  0  0  0  0  0
   -2.8620   -0.0019   -0.0232 C   0  0  0  0  0  0  0  0  0  0  0  0
   -2.1508    0.0006    1.1794 C   0  0  0  0  0  0  0  0  0  0  0  0
   -0.7481   -0.0000    1.1875 C   0  0  0  0  0  0  0  0  0  0  0  0
    0.0000    0.0000    0.0000 C   0  0  0  0  0  0  0  0  0  0  0  0
   -0.7495    0.0122   -1.1922 C   0  0  0  0  0  0  0  0  0  0  0  0
   -2.1508    0.0156   -1.2224 C   0  0  0  0  0  0  0  0  0  0  0  0
   -2.8818    0.0298   -2.5161 C   0  0  0  0  0  0  0  0  0  0  0  0
    1.3980   -0.0000    0.0000 N   0  0  0  0  0  0  0  0  0  0  0  0
    2.1462   -0.0000   -1.2548 C   0  0  0  0  0  0  0  0  0  0  0  0
    3.6585    0.0005   -1.0124 C   0  0  0  0  0  0  0  0  0  0  0  0
    3.9928    1.0177   -0.0176 N   0  0  0  0  0  0  0  0  0  0  0  0
    5.4265    1.1965    0.1158 C   0  0  0  0  0  0  0  0  0  0  0  0
    6.1531    1.3905   -1.1485 C   0  0  0  0  0  0  0  0  0  0  0  0
    6.6793    0.4487   -1.9053 N   0  0  0  0  0  0  0  0  0  0  0  0
    7.2497    1.1050   -2.9696 C   0  0  0  0  0  0  0  0  0  0  0  0
    7.9452    0.5935   -4.0744 C   0  0  0  0  0  0  0  0  0  0  0  0
    8.4249    1.5031   -5.0222 C   0  0  0  0  0  0  0  0  0  0  0  0
    8.2338    2.8845   -4.9009 C   0  0  0  0  0  0  0  0  0  0  0  0
    7.5398    3.4009   -3.7985 C   0  0  0  0  0  0  0  0  0  0  0  0
    7.0661    2.4782   -2.8593 C   0  0  0  0  0  0  0  0  0  0  0  0
    6.3645    2.6345   -1.6911 N   0  0  0  0  0  0  0  0  0  0  0  0
    3.3562    0.7618    1.2824 C   0  0  0  0  0  0  0  0  0  0  0  0
    2.1557   -0.1924    1.2279 C   0  0  0  0  0  0  0  0  0  0  0  0
   -4.7302   -0.0006    1.0020 H   0  0  0  0  0  0  0  0  0  0  0  0
   -4.7405   -0.8805   -0.5446 H   0  0  0  0  0  0  0  0  0  0  0  0
   -4.7412    0.8845   -0.5310 H   0  0  0  0  0  0  0  0  0  0  0  0
   -2.6804    0.0063    2.1292 H   0  0  0  0  0  0  0  0  0  0  0  0
   -0.2591    0.0073    2.1584 H   0  0  0  0  0  0  0  0  0  0  0  0
   -0.2109    0.0194   -2.1390 H   0  0  0  0  0  0  0  0  0  0  0  0
   -2.1776    0.0364   -3.3532 H   0  0  0  0  0  0  0  0  0  0  0  0
   -3.5286    0.9091   -2.5921 H   0  0  0  0  0  0  0  0  0  0  0  0
   -3.5180   -0.8556   -2.6176 H   0  0  0  0  0  0  0  0  0  0  0  0
    1.8698    0.8900   -1.8346 H   0  0  0  0  0  0  0  0  0  0  0  0
    1.8768   -0.8795   -1.8519 H   0  0  0  0  0  0  0  0  0  0  0  0
    3.9960   -0.9922   -0.6866 H   0  0  0  0  0  0  0  0  0  0  0  0
    4.1574    0.2123   -1.9660 H   0  0  0  0  0  0  0  0  0  0  0  0
    5.8611    0.3747    0.6976 H   0  0  0  0  0  0  0  0  0  0  0  0
    5.5890    2.0941    0.7260 H   0  0  0  0  0  0  0  0  0  0  0  0
    8.1089   -0.4720   -4.1952 H   0  0  0  0  0  0  0  0  0  0  0  0
    8.9668    1.1229   -5.8862 H   0  0  0  0  0  0  0  0  0  0  0  0
    8.6228    3.5568   -5.6599 H   0  0  0  0  0  0  0  0  0  0  0  0
    7.3629    4.4597   -3.6530 H   0  0  0  0  0  0  0  0  0  0  0  0
    6.0574    3.5137   -1.2967 H   0  0  0  0  0  0  0  0  0  0  0  0
    3.0243    1.7293    1.6785 H   0  0  0  0  0  0  0  0  0  0  0  0
    4.0684    0.3538    2.0116 H   0  0  0  0  0  0  0  0  0  0  0  0
    1.5272   -0.0289    2.1122 H   0  0  0  0  0  0  0  0  0  0  0  0
    2.5011   -1.2332    1.2715 H   0  0  0  0  0  0  0  0  0  0  0  0
  1  2  1  0
  2  3  2  0
  3  4  1  0
  4  5  2  0
  5  6  1  0
  6  7  2  0
  7  8  1  0
  5  9  1  0
  9 10  1  0
 10 11  1  0
 11 12  1  0
 12 13  1  0
 13 14  1  0
 14 15  2  0
 15 16  1  0
 16 17  2  0
 17 18  1  0
 18 19  2  0
 19 20  1  0
 20 21  2  0
 21 22  1  0
 12 23  1  0
 23 24  1  0
  7  2  1  0
 24  9  1  0
 22 14  1  0
 21 16  1  0
  1 25  1  0
  1 26  1  0
  1 27  1  0
  3 28  1  0
  4 29  1  0
  6 30  1  0
  8 31  1  0
  8 32  1  0
  8 33  1  0
 10 34  1  0
 10 35  1  0
 11 36  1  0
 11 37  1  0
 13 38  1  0
 13 39  1  0
 17 40  1  0
 18 41  1  0
 19 42  1  0
 20 43  1  0
 22 44  1  0
 23 45  1  0
 23 46  1  0
 24 47  1  0
 24 48  1  0
M  END
>  <_MoleculeID>  (69) 
smi7

>  <_InputIndex>  (69) 
7

>  <_InputSMILES>  (69) 
Cc1ccc(cc1C)N1CCN(Cc2nc3ccccc3[nH]2)CC1

>  <_InputInChIKey>  (69) 
SAQMCVDGOIRQTC-UHFFFAOYSA-N

>  <_SMILES>  (69) 
Cc1ccc(N2CCN(Cc3nc4ccccc4[nH]3)CC2)cc1C

>  <_InChIKey>  (69) 
SAQMCVDGOIRQTC-UHFFFAOYSA-N

$$$$
smi8_conf0
     RDKit          3D

 46 48  0  0  0  0  0  0  0  0999 V2000
   -2.7956    0.0123    2.5496 C   0  0  0  0  0  0  0  0  0  0  0  0
   -2.0607    0.0084    1.2581 C   0  0  0  0  0  0  0  0  0  0  0  0
   -2.7542   -0.0063    0.0453 C   0  0  0  0  0  0  0  0  0  0  0  0
   -2.0677   -0.0090   -1.1779 C   0  0  0  0  0  0  0  0  0  0  0  0
   -0.6657   -0.0001   -1.2410 C   0  0  0  0  0  0  0  0  0  0  0  0
    0.0000   -0.0000    0.0000 C   0  0  0  0  0  0  0  0  0  0  0  0
    1.3950    0.0000    0.0000 N   0  0  0  0  0  0  0  0  0  0  0  0
    2.1862   -0.0000   -1.1436 C   0  0  0  0  0  0  0  0  0  0  0  0
    1.7857    0.0000   -2.3058 O   0  0  0  0  0  0  0  0  0  0  0  0
    3.6691    0.0203   -0.8178 C   0  0  0  0  0  0  0  0  0  0  0  0
    4.5014    0.0386   -2.0062 N   0  0  0  0  0  0  0  0  0  0  0  0
    4.6196    1.3718   -2.6045 C   0  0  0  0  0  0  0  0  0  0  0  0
    5.3253    1.2955   -3.9612 C   0  0  0  0  0  0  0  0  0  0  0  0
    6.7010    0.6274   -3.8367 C   0  0  0  0  0  0  0  0  0  0  0  0
    6.5617   -0.7246   -3.1248 C   0  0  0  0  0  0  0  0  0  0  0  0
    5.8143   -0.5793   -1.7968 C   0  0  0  0  0  0  0  0  0  0  0  0
    7.3368    0.4627   -5.1696 C   0  0  0  0  0  0  0  0  0  0  0  0
    8.5511    1.0720   -5.4917 C   0  0  0  0  0  0  0  0  0  0  0  0
    9.1124    0.8780   -6.7600 C   0  0  0  0  0  0  0  0  0  0  0  0
    8.4215    0.0906   -7.6793 C   0  0  0  0  0  0  0  0  0  0  0  0
    7.2166   -0.4652   -7.2889 C   0  0  0  0  0  0  0  0  0  0  0  0
    6.6619   -0.2943   -6.0683 N   0  0  0  0  0  0  0  0  0  0  0  0
   -0.6665    0.0000    1.2329 C   0  0  0  0  0  0  0  0  0  0  0  0
   -3.8755    0.0023    2.3750 H   0  0  0  0  0  0  0  0  0  0  0  0
   -2.5421    0.8959    3.1431 H   0  0  0  0  0  0  0  0  0  0  0  0
   -2.5426   -0.8691    3.1482 H   0  0  0  0  0  0  0  0  0  0  0  0
   -3.8417   -0.0192    0.0360 H   0  0  0  0  0  0  0  0  0  0  0  0
   -2.6698   -0.0260   -2.0829 H   0  0  0  0  0  0  0  0  0  0  0  0
   -0.1307   -0.0025   -2.1814 H   0  0  0  0  0  0  0  0  0  0  0  0
    1.8504    0.0840    0.9047 H   0  0  0  0  0  0  0  0  0  0  0  0
    3.8940   -0.8648   -0.2098 H   0  0  0  0  0  0  0  0  0  0  0  0
    3.9108    0.8801   -0.1813 H   0  0  0  0  0  0  0  0  0  0  0  0
    3.6233    1.8022   -2.7626 H   0  0  0  0  0  0  0  0  0  0  0  0
    5.1723    2.0560   -1.9492 H   0  0  0  0  0  0  0  0  0  0  0  0
    5.4343    2.3067   -4.3732 H   0  0  0  0  0  0  0  0  0  0  0  0
    4.6927    0.7394   -4.6667 H   0  0  0  0  0  0  0  0  0  0  0  0
    7.3368    1.2742   -3.2158 H   0  0  0  0  0  0  0  0  0  0  0  0
    6.0264   -1.4398   -3.7645 H   0  0  0  0  0  0  0  0  0  0  0  0
    7.5536   -1.1562   -2.9400 H   0  0  0  0  0  0  0  0  0  0  0  0
    5.6941   -1.5791   -1.3626 H   0  0  0  0  0  0  0  0  0  0  0  0
    6.4262    0.0088   -1.1019 H   0  0  0  0  0  0  0  0  0  0  0  0
    9.0582    1.6948   -4.7597 H   0  0  0  0  0  0  0  0  0  0  0  0
   10.0579    1.3396   -7.0234 H   0  0  0  0  0  0  0  0  0  0  0  0
    8.8064   -0.0866   -8.6777 H   0  0  0  0  0  0  0  0  0  0  0  0
    6.6435   -1.0831   -7.9724 H   0  0  0  0  0  0  0  0  0  0  0  0
   -0.1081   -0.0008    2.1662 H   0  0  0  0  0  0  0  0  0  0  0  0
  1  2  1  0
  2  3  2  0
  3  4  1  0
  4  5  2  0
  5  6  1  0
  6  7  1  0
  7  8  1  0
  8  9  2  0
  8 10  1  0
 10 11  1  0
 11 12  1  0
 12 13  1  0
 13 14  1  0
 14 15  1  0
 15 16  1  0
 14 17  1  0
 17 18  2  0
 18 19  1  0
 19 20  2  0
 20 21  1  0
 21 22  2  0
  6 23  2  0
 23  2  1  0
 16 11  1  0
 22 17  1  0
  1 24  1  0
  1 25  1  0
  1 26  1  0
  3 27  1  0
  4 28  1  0
  5 29  1  0
  7 30  1  0
 10 31  1  0
 10 32  1  0
 12 33  1  0
 12 34  1  0
 13 35  1  0
 13 36  1  0
 14 37  1  0
 15 38  1  0
 15 39  1  0
 16 40  1  0
 16 41  1  0
 18 42  1  0
 19 43  1  0
 20 44  1  0
 21 45  1  0
 23 46  1  0
M  END
>  <_MoleculeID>  (70) 
smi8

>  <_InputIndex>  (70) 
8

>  <_InputSMILES>  (70) 
Cc1cccc(NC(=O)CN2CCC(CC2)c2ccccn2)c1

>  <_InputInChIKey>  (70) 
JFCDMGGMCUKHST-UHFFFAOYSA-N

>  <_SMILES>  (70) 
Cc1cccc(NC(=O)CN2CCC(c3ccccn3)CC2)c1

>  <_InChIKey>  (70) 
JFCDMGGMCUKHST-UHFFFAOYSA-N

$$$$
smi8_conf1
     RDKit          3D

 46 48  0  0  0  0  0  0  0  0999 V2000
   -2.7956    0.0123    2.5496 C   0  0  0  0  0  0  0  0  0  0  0  0
   -2.0607    0.0084    1.2581 C   0  0  0  0  0  0  0  0  0  0  0  0
   -2.7542   -0.0063    0.0453 C   0  0  0  0  0  0  0  0  0  0  0  0
   -2.0677   -0.0090   -1.1779 C   0  0  0  0  0  0  0  0  0  0  0  0
   -0.6657   -0.0001   -1.2410 C   0  0  0  0  0  0  0  0  0  0  0  0
    0.0000   -0.0000    0.0000 C   0  0  0  0  0  0  0  0  0  0  0  0
    1.3950    0.0000    0.0000 N   0  0  0  0  0  0  0  0  0  0  0  0
    2.1862    0.0000    1.1436 C   0  0  0  0  0  0  0  0  0  0  0  0
    1.7857   -0.0000    2.3058 O   0  0  0  0  0  0  0  0  0  0  0  0
    3.6691   -0.0203    0.8178 C   0  0  0  0  0  0  0  0  0  0  0  0
    4.5014   -0.0386    2.0062 N   0  0  0  0  0  0  0  0  0  0  0  0
    4.6196   -1.3718    2.6045 C   0  0  0  0  0  0  0  0  0  0  0  0
    5.3253   -1.2955    3.9612 C   0  0  0  0  0  0  0  0  0  0  0  0
    6.7010   -0.6274    3.8367 C   0  0  0  0  0  0  0  0  0  0  0  0
    6.5617    0.7246    3.1248 C   0  0  0  0  0  0  0  0  0  0  0  0
    5.8143    0.5793    1.7968 C   0  0  0  0  0  0  0  0  0  0  0  0
    7.3368   -0.4627    5.1696 C   0  0  0  0  0  0  0  0  0  0  0  0
    7.9670   -1.5219    5.8259 C   0  0  0  0  0  0  0  0  0  0  0  0
    8.5586   -1.3118    7.0778 C   0  0  0  0  0  0  0  0  0  0  0  0
    8.4795   -0.0415    7.6455 C   0  0  0  0  0  0  0  0  0  0  0  0
    7.8243    0.9509    6.9390 C   0  0  0  0  0  0  0  0  0  0  0  0
    7.2525    0.7690    5.7280 N   0  0  0  0  0  0  0  0  0  0  0  0
   -0.6665    0.0000    1.2329 C   0  0  0  0  0  0  0  0  0  0  0  0
   -3.8755    0.0023    2.3750 H   0  0  0  0  0  0  0  0  0  0  0  0
   -2.5421    0.8959    3.1431 H   0  0  0  0  0  0  0  0  0  0  0  0
   -2.5426   -0.8691    3.1482 H   0  0  0  0  0  0  0  0  0  0  0  0
   -3.8417   -0.0192    0.0360 H   0  0  0  0  0  0  0  0  0  0  0  0
   -2.6698   -0.0260   -2.0829 H   0  0  0  0  0  0  0  0  0  0  0  0
   -0.1307   -0.0025   -2.1814 H   0  0  0  0  0  0  0  0  0  0  0  0
    1.8504   -0.0840   -0.9047 H   0  0  0  0  0  0  0  0  0  0  0  0
    3.8940    0.8648    0.2098 H   0  0  0  0  0  0  0  0  0  0  0  0
    3.9108   -0.8801    0.1813 H   0  0  0  0  0  0  0  0  0  0  0  0
    3.6233   -1.8022    2.7626 H   0  0  0  0  0  0  0  0  0  0  0  0
    5.1723   -2.0560    1.9492 H   0  0  0  0  0  0  0  0  0  0  0  0
    5.4343   -2.3067    4.3732 H   0  0  0  0  0  0  0  0  0  0  0  0
    4.6927   -0.7394    4.6667 H   0  0  0  0  0  0  0  0  0  0  0  0
    7.3368   -1.2742    3.2158 H   0  0  0  0  0  0  0  0  0  0  0  0
    6.0264    1.4398    3.7645 H   0  0  0  0  0  0  0  0  0  0  0  0
    7.5536    1.1562    2.9400 H   0  0  0  0  0  0  0  0  0  0  0  0
    5.6941    1.5791    1.3626 H   0  0  0  0  0  0  0  0  0  0  0  0
    6.4262   -0.0088    1.1019 H   0  0  0  0  0  0  0  0  0  0  0  0
    7.9975   -2.5059    5.3658 H   0  0  0  0  0  0  0  0  0  0  0  0
    9.0569   -2.1229    7.5975 H   0  0  0  0  0  0  0  0  0  0  0  0
    8.9135    0.1749    8.6157 H   0  0  0  0  0  0  0  0  0  0  0  0
    7.7365    1.9540    7.3435 H   0  0  0  0  0  0  0  0  0  0  0  0
   -0.1081   -0.0008    2.1662 H   0  0  0  0  0  0  0  0  0  0  0  0
  1  2  1  0
  2  3  2  0
  3  4  1  0
  4  5  2  0
  5  6  1  0
  6  7  1  0
  7  8  1  0
  8  9  2  0
  8 10  1  0
 10 11  1  0
 11 12  1  0
 12 13  1  0
 13 14  1  0
 14 15  1  0
 15 16  1  0
 14 17  1  0
 17 18  2  0
 18 19  1  0
 19 20  2  0
 20 21  1  0
 21 22  2  0
  6 23  2  0
 23  2  1  0
 16 11  1  0
 22 17  1  0
  1 24  1  0
  1 25  1  0
  1 26  1  0
  3 27  1  0
  4 28  1  0
  5 29  1  0
  7 30  1  0
 10 31  1  0
 10 32  1  0
 12 33  1  0
 12 34  1  0
 13 35  1  0
 13 36  1  0
 14 37  1  0
 15 38  1  0
 15 39  1  0
 16 40  1  0
 16 41  1  0
 18 42  1  0
 19 43  1  0
 20 44  1  0
 21 45  1  0
 23 46  1  0
M  END
>  <_MoleculeID>  (71) 
smi8

>  <_InputIndex>  (71) 
8

>  <_InputSMILES>  (71) 
Cc1cccc(NC(=O)CN2CCC(CC2)c2ccccn2)c1

>  <_InputInChIKey>  (71) 
JFCDMGGMCUKHST-UHFFFAOYSA-N

>  <_SMILES>  (71) 
Cc1cccc(NC(=O)CN2CCC(c3ccccn3)CC2)c1

>  <_InChIKey>  (71) 
JFCDMGGMCUKHST-UHFFFAOYSA-N

$$$$
smi8_conf2
     RDKit          3D

 46 48  0  0  0  0  0  0  0  0999 V2000
   -2.7956    0.0123    2.5496 C   0  0  0  0  0  0  0  0  0  0  0  0
   -2.0607    0.0084    1.2581 C   0  0  0  0  0  0  0  0  0  0  0  0
   -2.7542   -0.0063    0.0453 C   0  0  0  0  0  0  0  0  0  0  0  0
   -2.0677   -0.0090   -1.1779 C   0  0  0  0  0  0  0  0  0  0  0  0
   -0.6657   -0.0001   -1.2410 C   0  0  0  0  0  0  0  0  0  0  0  0
    0.0000   -0.0000    0.0000 C   0  0  0  0  0  0  0  0  0  0  0  0
    1.3950    0.0000    0.0000 N   0  0  0  0  0  0  0  0  0  0  0  0
    2.1862    0.0000    1.1436 C   0  0  0  0  0  0  0  0  0  0  0  0
    1.7857   -0.0000    2.3058 O   0  0  0  0  0  0  0  0  0  0  0  0
    3.6691   -0.0203    0.8178 C   0  0  0  0  0  0  0  0  0  0  0  0
    4.5014   -0.0386    2.0062 N   0  0  0  0  0  0  0  0  0  0  0  0
    5.9154   -0.2923    1.7136 C   0  0  0  0  0  0  0  0  0  0  0  0
    6.7048   -0.5116    3.0072 C   0  0  0  0  0  0  0  0  0  0  0  0
    6.5484    0.6779    3.9637 C   0  0  0  0  0  0  0  0  0  0  0  0
    5.0600    0.9808    4.1805 C   0  0  0  0  0  0  0  0  0  0  0  0
    4.3271    1.1495    2.8472 C   0  0  0  0  0  0  0  0  0  0  0  0
    7.2309    0.4156    5.2574 C   0  0  0  0  0  0  0  0  0  0  0  0
    8.2811    1.2133    5.7162 C   0  0  0  0  0  0  0  0  0  0  0  0
    8.8852    0.9283    6.9471 C   0  0  0  0  0  0  0  0  0  0  0  0
    8.4276   -0.1693    7.6738 C   0  0  0  0  0  0  0  0  0  0  0  0
    7.3933   -0.9194    7.1437 C   0  0  0  0  0  0  0  0  0  0  0  0
    6.7941   -0.6569    5.9610 N   0  0  0  0  0  0  0  0  0  0  0  0
   -0.6665    0.0000    1.2329 C   0  0  0  0  0  0  0  0  0  0  0  0
   -3.8755    0.0023    2.3750 H   0  0  0  0  0  0  0  0  0  0  0  0
   -2.5421    0.8959    3.1431 H   0  0  0  0  0  0  0  0  0  0  0  0
   -2.5426   -0.8691    3.1482 H   0  0  0  0  0  0  0  0  0  0  0  0
   -3.8417   -0.0192    0.0360 H   0  0  0  0  0  0  0  0  0  0  0  0
   -2.6698   -0.0260   -2.0829 H   0  0  0  0  0  0  0  0  0  0  0  0
   -0.1307   -0.0025   -2.1814 H   0  0  0  0  0  0  0  0  0  0  0  0
    1.8504   -0.0840   -0.9047 H   0  0  0  0  0  0  0  0  0  0  0  0
    3.8940    0.8648    0.2098 H   0  0  0  0  0  0  0  0  0  0  0  0
    3.9108   -0.8801    0.1813 H   0  0  0  0  0  0  0  0  0  0  0  0
    6.0156   -1.1934    1.0967 H   0  0  0  0  0  0  0  0  0  0  0  0
    6.3631    0.5390    1.1554 H   0  0  0  0  0  0  0  0  0  0  0  0
    7.7646   -0.6639    2.7667 H   0  0  0  0  0  0  0  0  0  0  0  0
    6.3596   -1.4371    3.4885 H   0  0  0  0  0  0  0  0  0  0  0  0
    7.0083    1.5565    3.4897 H   0  0  0  0  0  0  0  0  0  0  0  0
    4.5853    0.1728    4.7542 H   0  0  0  0  0  0  0  0  0  0  0  0
    4.9452    1.8939    4.7782 H   0  0  0  0  0  0  0  0  0  0  0  0
    3.2629    1.3056    3.0610 H   0  0  0  0  0  0  0  0  0  0  0  0
    4.6967    2.0520    2.3451 H   0  0  0  0  0  0  0  0  0  0  0  0
    8.6279    2.0523    5.1189 H   0  0  0  0  0  0  0  0  0  0  0  0
    9.6981    1.5419    7.3198 H   0  0  0  0  0  0  0  0  0  0  0  0
    8.8642   -0.4398    8.6291 H   0  0  0  0  0  0  0  0  0  0  0  0
    7.0067   -1.7837    7.6737 H   0  0  0  0  0  0  0  0  0  0  0  0
   -0.1081   -0.0008    2.1662 H   0  0  0  0  0  0  0  0  0  0  0  0
  1  2  1  0
  2  3  2  0
  3  4  1  0
  4  5  2  0
  5  6  1  0
  6  7  1  0
  7  8  1  0
  8  9  2  0
  8 10  1  0
 10 11  1  0
 11 12  1  0
 12 13  1  0
 13 14  1  0
 14 15  1  0
 15 16  1  0
 14 17  1  0
 17 18  2  0
 18 19  1  0
 19 20  2  0
 20 21  1  0
 21 22  2  0
  6 23  2  0
 23  2  1  0
 16 11  1  0
 22 17  1  0
  1 24  1  0
  1 25  1  0
  1 26  1  0
  3 27  1  0
  4 28  1  0
  5 29  1  0
  7 30  1  0
 10 31  1  0
 10 32  1  0
 12 33  1  0
 12 34  1  0
 13 35  1  0
 13 36  1  0
 14 37  1  0
 15 38  1  0
 15 39  1  0
 16 40  1  0
 16 41  1  0
 18 42  1  0
 19 43  1  0
 20 44  1  0
 21 45  1  0
 23 46  1  0
M  END
>  <_MoleculeID>  (72) 
smi8

>  <_InputIndex>  (72) 
8

>  <_InputSMILES>  (72) 
Cc1cccc(NC(=O)CN2CCC(CC2)c2ccccn2)c1

>  <_InputInChIKey>  (72) 
JFCDMGGMCUKHST-UHFFFAOYSA-N

>  <_SMILES>  (72) 
Cc1cccc(NC(=O)CN2CCC(c3ccccn3)CC2)c1

>  <_InChIKey>  (72) 
JFCDMGGMCUKHST-UHFFFAOYSA-N

$$$$
smi8_conf3
     RDKit          3D

 46 48  0  0  0  0  0  0  0  0999 V2000
   -2.7956    0.0123    2.5496 C   0  0  0  0  0  0  0  0  0  0  0  0
   -2.0607    0.0084    1.2581 C   0  0  0  0  0  0  0  0  0  0  0  0
   -2.7542   -0.0063    0.0453 C   0  0  0  0  0  0  0  0  0  0  0  0
   -2.0677   -0.0090   -1.1779 C   0  0  0  0  0  0  0  0  0  0  0  0
   -0.6657   -0.0001   -1.2410 C   0  0  0  0  0  0  0  0  0  0  0  0
    0.0000   -0.0000    0.0000 C   0  0  0  0  0  0  0  0  0  0  0  0
    1.3950   -0.0000    0.0000 N   0  0  0  0  0  0  0  0  0  0  0  0
    2.1862   -0.0000   -1.1436 C   0  0  0  0  0  0  0  0  0  0  0  0
    1.7857    0.0000   -2.3058 O   0  0  0  0  0  0  0  0  0  0  0  0
    3.6691    0.0203   -0.8178 C   0  0  0  0  0  0  0  0  0  0  0  0
    4.5014    0.0386   -2.0062 N   0  0  0  0  0  0  0  0  0  0  0  0
    5.8758   -0.4037   -1.7521 C   0  0  0  0  0  0  0  0  0  0  0  0
    6.6435   -0.5674   -3.0669 C   0  0  0  0  0  0  0  0  0  0  0  0
    6.6284    0.7300   -3.8859 C   0  0  0  0  0  0  0  0  0  0  0  0
    5.1851    1.2210   -4.0589 C   0  0  0  0  0  0  0  0  0  0  0  0
    4.4676    1.3240   -2.7105 C   0  0  0  0  0  0  0  0  0  0  0  0
    7.2849    0.5360   -5.2048 C   0  0  0  0  0  0  0  0  0  0  0  0
    6.5507    0.3558   -6.3787 C   0  0  0  0  0  0  0  0  0  0  0  0
    7.2183    0.1854   -7.5980 C   0  0  0  0  0  0  0  0  0  0  0  0
    8.6119    0.1794   -7.5976 C   0  0  0  0  0  0  0  0  0  0  0  0
    9.2662    0.3485   -6.3907 C   0  0  0  0  0  0  0  0  0  0  0  0
    8.6399    0.5199   -5.2053 N   0  0  0  0  0  0  0  0  0  0  0  0
   -0.6665    0.0000    1.2329 C   0  0  0  0  0  0  0  0  0  0  0  0
   -3.8755    0.0023    2.3750 H   0  0  0  0  0  0  0  0  0  0  0  0
   -2.5421    0.8959    3.1431 H   0  0  0  0  0  0  0  0  0  0  0  0
   -2.5426   -0.8691    3.1482 H   0  0  0  0  0  0  0  0  0  0  0  0
   -3.8417   -0.0192    0.0360 H   0  0  0  0  0  0  0  0  0  0  0  0
   -2.6698   -0.0260   -2.0829 H   0  0  0  0  0  0  0  0  0  0  0  0
   -0.1307   -0.0025   -2.1814 H   0  0  0  0  0  0  0  0  0  0  0  0
    1.8504    0.0840    0.9047 H   0  0  0  0  0  0  0  0  0  0  0  0
    3.8940   -0.8648   -0.2098 H   0  0  0  0  0  0  0  0  0  0  0  0
    3.9108    0.8801   -0.1813 H   0  0  0  0  0  0  0  0  0  0  0  0
    5.8698   -1.3726   -1.2385 H   0  0  0  0  0  0  0  0  0  0  0  0
    6.4110    0.3053   -1.1087 H   0  0  0  0  0  0  0  0  0  0  0  0
    7.6777   -0.8639   -2.8511 H   0  0  0  0  0  0  0  0  0  0  0  0
    6.1990   -1.3894   -3.6447 H   0  0  0  0  0  0  0  0  0  0  0  0
    7.1816    1.4936   -3.3212 H   0  0  0  0  0  0  0  0  0  0  0  0
    4.6258    0.5397   -4.7148 H   0  0  0  0  0  0  0  0  0  0  0  0
    5.1779    2.2013   -4.5519 H   0  0  0  0  0  0  0  0  0  0  0  0
    3.4293    1.6218   -2.8993 H   0  0  0  0  0  0  0  0  0  0  0  0
    4.9337    2.1183   -2.1146 H   0  0  0  0  0  0  0  0  0  0  0  0
    5.4645    0.3477   -6.3451 H   0  0  0  0  0  0  0  0  0  0  0  0
    6.6621    0.0502   -8.5193 H   0  0  0  0  0  0  0  0  0  0  0  0
    9.1794    0.0440   -8.5119 H   0  0  0  0  0  0  0  0  0  0  0  0
   10.3502    0.3483   -6.3427 H   0  0  0  0  0  0  0  0  0  0  0  0
   -0.1081   -0.0008    2.1662 H   0  0  0  0  0  0  0  0  0  0  0  0
  1  2  1  0
  2  3  2  0
  3  4  1  0
  4  5  2  0
  5  6  1  0
  6  7  1  0
  7  8  1  0
  8  9  2  0
  8 10  1  0
 10 11  1  0
 11 12  1  0
 12 13  1  0
 13 14  1  0
 14 15  1  0
 15 16  1  0
 14 17  1  0
 17 18  2  0
 18 19  1  0
 19 20  2  0
 20 21  1  0
 21 22  2  0
  6 23  2  0
 23  2  1  0
 16 11  1  0
 22 17  1  0
  1 24  1  0
  1 25  1  0
  1 26  1  0
  3 27  1  0
  4 28  1  0
  5 29  1  0
  7 30  1  0
 10 31  1  0
 10 32  1  0
 12 33  1  0
 12 34  1  0
 13 35  1  0
 13 36  1  0
 14 37  1  0
 15 38  1  0
 15 39  1  0
 16 40  1  0
 16 41  1  0
 18 42  1  0
 19 43  1  0
 20 44  1  0
 21 45  1  0
 23 46  1  0
M  END
>  <_MoleculeID>  (73) 
smi8

>  <_InputIndex>  (73) 
8

>  <_InputSMILES>  (73) 
Cc1cccc(NC(=O)CN2CCC(CC2)c2ccccn2)c1

>  <_InputInChIKey>  (73) 
JFCDMGGMCUKHST-UHFFFAOYSA-N

>  <_SMILES>  (73) 
Cc1cccc(NC(=O)CN2CCC(c3ccccn3)CC2)c1

>  <_InChIKey>  (73) 
JFCDMGGMCUKHST-UHFFFAOYSA-N

$$$$
smi8_conf4
     RDKit          3D

 46 48  0  0  0  0  0  0  0  0999 V2000
   -2.7956    0.0123    2.5496 C   0  0  0  0  0  0  0  0  0  0  0  0
   -2.0607    0.0084    1.2581 C   0  0  0  0  0  0  0  0  0  0  0  0
   -2.7542   -0.0063    0.0453 C   0  0  0  0  0  0  0  0  0  0  0  0
   -2.0677   -0.0090   -1.1779 C   0  0  0  0  0  0  0  0  0  0  0  0
   -0.6657   -0.0001   -1.2410 C   0  0  0  0  0  0  0  0  0  0  0  0
    0.0000   -0.0000    0.0000 C   0  0  0  0  0  0  0  0  0  0  0  0
    1.3950   -0.0000    0.0000 N   0  0  0  0  0  0  0  0  0  0  0  0
    2.1862   -0.0000   -1.1436 C   0  0  0  0  0  0  0  0  0  0  0  0
    1.7857   -0.0000   -2.3058 O   0  0  0  0  0  0  0  0  0  0  0  0
    3.6691    0.0203   -0.8178 C   0  0  0  0  0  0  0  0  0  0  0  0
    4.5014    0.0386   -2.0062 N   0  0  0  0  0  0  0  0  0  0  0  0
    4.6196    1.3718   -2.6045 C   0  0  0  0  0  0  0  0  0  0  0  0
    5.4375    2.2995   -1.7017 C   0  0  0  0  0  0  0  0  0  0  0  0
    6.8217    1.7085   -1.4036 C   0  0  0  0  0  0  0  0  0  0  0  0
    6.6739    0.2793   -0.8654 C   0  0  0  0  0  0  0  0  0  0  0  0
    5.8143   -0.5793   -1.7968 C   0  0  0  0  0  0  0  0  0  0  0  0
    7.5712    2.5619   -0.4455 C   0  0  0  0  0  0  0  0  0  0  0  0
    7.1051    2.8104    0.8470 C   0  0  0  0  0  0  0  0  0  0  0  0
    7.8541    3.6154    1.7143 C   0  0  0  0  0  0  0  0  0  0  0  0
    9.0452    4.1674    1.2466 C   0  0  0  0  0  0  0  0  0  0  0  0
    9.4307    3.8864   -0.0518 C   0  0  0  0  0  0  0  0  0  0  0  0
    8.7247    3.1077   -0.9014 N   0  0  0  0  0  0  0  0  0  0  0  0
   -0.6665    0.0000    1.2329 C   0  0  0  0  0  0  0  0  0  0  0  0
   -3.8755    0.0023    2.3750 H   0  0  0  0  0  0  0  0  0  0  0  0
   -2.5421    0.8959    3.1431 H   0  0  0  0  0  0  0  0  0  0  0  0
   -2.5426   -0.8691    3.1482 H   0  0  0  0  0  0  0  0  0  0  0  0
   -3.8417   -0.0192    0.0360 H   0  0  0  0  0  0  0  0  0  0  0  0
   -2.6698   -0.0260   -2.0829 H   0  0  0  0  0  0  0  0  0  0  0  0
   -0.1307   -0.0025   -2.1814 H   0  0  0  0  0  0  0  0  0  0  0  0
    1.8504    0.0840    0.9047 H   0  0  0  0  0  0  0  0  0  0  0  0
    3.8940   -0.8648   -0.2098 H   0  0  0  0  0  0  0  0  0  0  0  0
    3.9108    0.8801   -0.1813 H   0  0  0  0  0  0  0  0  0  0  0  0
    3.6247    1.8144   -2.7354 H   0  0  0  0  0  0  0  0  0  0  0  0
    5.0907    1.3252   -3.5938 H   0  0  0  0  0  0  0  0  0  0  0  0
    5.5430    3.2791   -2.1849 H   0  0  0  0  0  0  0  0  0  0  0  0
    4.8863    2.4722   -0.7670 H   0  0  0  0  0  0  0  0  0  0  0  0
    7.3798    1.6593   -2.3493 H   0  0  0  0  0  0  0  0  0  0  0  0
    6.2200    0.2929    0.1351 H   0  0  0  0  0  0  0  0  0  0  0  0
    7.6622   -0.1836   -0.7511 H   0  0  0  0  0  0  0  0  0  0  0  0
    5.6954   -1.5672   -1.3359 H   0  0  0  0  0  0  0  0  0  0  0  0
    6.3446   -0.7219   -2.7463 H   0  0  0  0  0  0  0  0  0  0  0  0
    6.1636    2.3801    1.1778 H   0  0  0  0  0  0  0  0  0  0  0  0
    7.5084    3.8129    2.7232 H   0  0  0  0  0  0  0  0  0  0  0  0
    9.6606    4.8040    1.8731 H   0  0  0  0  0  0  0  0  0  0  0  0
   10.3492    4.2964   -0.4587 H   0  0  0  0  0  0  0  0  0  0  0  0
   -0.1081   -0.0008    2.1662 H   0  0  0  0  0  0  0  0  0  0  0  0
  1  2  1  0
  2  3  2  0
  3  4  1  0
  4  5  2  0
  5  6  1  0
  6  7  1  0
  7  8  1  0
  8  9  2  0
  8 10  1  0
 10 11  1  0
 11 12  1  0
 12 13  1  0
 13 14  1  0
 14 15  1  0
 15 16  1  0
 14 17  1  0
 17 18  2  0
 18 19  1  0
 19 20  2  0
 20 21  1  0
 21 22  2  0
  6 23  2  0
 23  2  1  0
 16 11  1  0
 22 17  1  0
  1 24  1  0
  1 25  1  0
  1 26  1  0
  3 27  1  0
  4 28  1  0
  5 29  1  0
  7 30  1  0
 10 31  1  0
 10 32  1  0
 12 33  1  0
 12 34  1  0
 13 35  1  0
 13 36  1  0
 14 37  1  0
 15 38  1  0
 15 39  1  0
 16 40  1  0
 16 41  1  0
 18 42  1  0
 19 43  1  0
 20 44  1  0
 21 45  1  0
 23 46  1  0
M  END
>  <_MoleculeID>  (74) 
smi8

>  <_InputIndex>  (74) 
8

>  <_InputSMILES>  (74) 
Cc1cccc(NC(=O)CN2CCC(CC2)c2ccccn2)c1

>  <_InputInChIKey>  (74) 
JFCDMGGMCUKHST-UHFFFAOYSA-N

>  <_SMILES>  (74) 
Cc1cccc(NC(=O)CN2CCC(c3ccccn3)CC2)c1

>  <_InChIKey>  (74) 
JFCDMGGMCUKHST-UHFFFAOYSA-N

$$$$
smi8_conf5
     RDKit          3D

 46 48  0  0  0  0  0  0  0  0999 V2000
   -2.7956    0.0123    2.5496 C   0  0  0  0  0  0  0  0  0  0  0  0
   -2.0607    0.0084    1.2581 C   0  0  0  0  0  0  0  0  0  0  0  0
   -2.7542   -0.0063    0.0453 C   0  0  0  0  0  0  0  0  0  0  0  0
   -2.0677   -0.0090   -1.1779 C   0  0  0  0  0  0  0  0  0  0  0  0
   -0.6657   -0.0001   -1.2410 C   0  0  0  0  0  0  0  0  0  0  0  0
    0.0000   -0.0000    0.0000 C   0  0  0  0  0  0  0  0  0  0  0  0
    1.3950   -0.0000    0.0000 N   0  0  0  0  0  0  0  0  0  0  0  0
    2.1862   -0.0000   -1.1436 C   0  0  0  0  0  0  0  0  0  0  0  0
    1.7857   -0.0000   -2.3058 O   0  0  0  0  0  0  0  0  0  0  0  0
    3.6691    0.0203   -0.8178 C   0  0  0  0  0  0  0  0  0  0  0  0
    4.5014    0.0386   -2.0062 N   0  0  0  0  0  0  0  0  0  0  0  0
    4.4345    1.3089   -2.7350 C   0  0  0  0  0  0  0  0  0  0  0  0
    5.1038    2.4287   -1.9334 C   0  0  0  0  0  0  0  0  0  0  0  0
    6.5551    2.0733   -1.5847 C   0  0  0  0  0  0  0  0  0  0  0  0
    6.6069    0.6983   -0.9059 C   0  0  0  0  0  0  0  0  0  0  0  0
    5.8868   -0.3622   -1.7427 C   0  0  0  0  0  0  0  0  0  0  0  0
    7.1668    3.1157   -0.7202 C   0  0  0  0  0  0  0  0  0  0  0  0
    8.5502    3.2740   -0.6162 C   0  0  0  0  0  0  0  0  0  0  0  0
    9.0760    4.2780    0.2066 C   0  0  0  0  0  0  0  0  0  0  0  0
    8.1908    5.0831    0.9211 C   0  0  0  0  0  0  0  0  0  0  0  0
    6.8347    4.8528    0.7761 C   0  0  0  0  0  0  0  0  0  0  0  0
    6.3083    3.8933   -0.0169 N   0  0  0  0  0  0  0  0  0  0  0  0
   -0.6665    0.0000    1.2329 C   0  0  0  0  0  0  0  0  0  0  0  0
   -3.8755    0.0023    2.3750 H   0  0  0  0  0  0  0  0  0  0  0  0
   -2.5421    0.8959    3.1431 H   0  0  0  0  0  0  0  0  0  0  0  0
   -2.5426   -0.8691    3.1482 H   0  0  0  0  0  0  0  0  0  0  0  0
   -3.8417   -0.0192    0.0360 H   0  0  0  0  0  0  0  0  0  0  0  0
   -2.6698   -0.0260   -2.0829 H   0  0  0  0  0  0  0  0  0  0  0  0
   -0.1307   -0.0025   -2.1814 H   0  0  0  0  0  0  0  0  0  0  0  0
    1.8504    0.0840    0.9047 H   0  0  0  0  0  0  0  0  0  0  0  0
    3.8940   -0.8648   -0.2098 H   0  0  0  0  0  0  0  0  0  0  0  0
    3.9108    0.8801   -0.1813 H   0  0  0  0  0  0  0  0  0  0  0  0
    3.3881    1.5901   -2.9045 H   0  0  0  0  0  0  0  0  0  0  0  0
    4.9167    1.2317   -3.7172 H   0  0  0  0  0  0  0  0  0  0  0  0
    5.0735    3.3604   -2.5124 H   0  0  0  0  0  0  0  0  0  0  0  0
    4.5249    2.6132   -1.0179 H   0  0  0  0  0  0  0  0  0  0  0  0
    7.1234    2.0102   -2.5235 H   0  0  0  0  0  0  0  0  0  0  0  0
    6.1463    0.7466    0.0905 H   0  0  0  0  0  0  0  0  0  0  0  0
    7.6499    0.3945   -0.7508 H   0  0  0  0  0  0  0  0  0  0  0  0
    5.9052   -1.3062   -1.1849 H   0  0  0  0  0  0  0  0  0  0  0  0
    6.4408   -0.5216   -2.6758 H   0  0  0  0  0  0  0  0  0  0  0  0
    9.2159    2.6194   -1.1723 H   0  0  0  0  0  0  0  0  0  0  0  0
   10.1480    4.4174    0.2934 H   0  0  0  0  0  0  0  0  0  0  0  0
    8.5436    5.8705    1.5785 H   0  0  0  0  0  0  0  0  0  0  0  0
    6.1093    5.4537    1.3148 H   0  0  0  0  0  0  0  0  0  0  0  0
   -0.1081   -0.0008    2.1662 H   0  0  0  0  0  0  0  0  0  0  0  0
  1  2  1  0
  2  3  2  0
  3  4  1  0
  4  5  2  0
  5  6  1  0
  6  7  1  0
  7  8  1  0
  8  9  2  0
  8 10  1  0
 10 11  1  0
 11 12  1  0
 12 13  1  0
 13 14  1  0
 14 15  1  0
 15 16  1  0
 14 17  1  0
 17 18  2  0
 18 19  1  0
 19 20  2  0
 20 21  1  0
 21 22  2  0
  6 23  2  0
 23  2  1  0
 16 11  1  0
 22 17  1  0
  1 24  1  0
  1 25  1  0
  1 26  1  0
  3 27  1  0
  4 28  1  0
  5 29  1  0
  7 30  1  0
 10 31  1  0
 10 32  1  0
 12 33  1  0
 12 34  1  0
 13 35  1  0
 13 36  1  0
 14 37  1  0
 15 38  1  0
 15 39  1  0
 16 40  1  0
 16 41  1  0
 18 42  1  0
 19 43  1  0
 20 44  1  0
 21 45  1  0
 23 46  1  0
M  END
>  <_MoleculeID>  (75) 
smi8

>  <_InputIndex>  (75) 
8

>  <_InputSMILES>  (75) 
Cc1cccc(NC(=O)CN2CCC(CC2)c2ccccn2)c1

>  <_InputInChIKey>  (75) 
JFCDMGGMCUKHST-UHFFFAOYSA-N

>  <_SMILES>  (75) 
Cc1cccc(NC(=O)CN2CCC(c3ccccn3)CC2)c1

>  <_InChIKey>  (75) 
JFCDMGGMCUKHST-UHFFFAOYSA-N

$$$$
smi8_conf6
     RDKit          3D

 46 48  0  0  0  0  0  0  0  0999 V2000
   -2.7956    0.0123    2.5496 C   0  0  0  0  0  0  0  0  0  0  0  0
   -2.0607    0.0084    1.2581 C   0  0  0  0  0  0  0  0  0  0  0  0
   -2.7542   -0.0063    0.0453 C   0  0  0  0  0  0  0  0  0  0  0  0
   -2.0677   -0.0090   -1.1779 C   0  0  0  0  0  0  0  0  0  0  0  0
   -0.6657   -0.0001   -1.2410 C   0  0  0  0  0  0  0  0  0  0  0  0
    0.0000   -0.0000    0.0000 C   0  0  0  0  0  0  0  0  0  0  0  0
    1.3950    0.0000    0.0000 N   0  0  0  0  0  0  0  0  0  0  0  0
    2.1862    0.0000    1.1436 C   0  0  0  0  0  0  0  0  0  0  0  0
    1.7857    0.0000    2.3058 O   0  0  0  0  0  0  0  0  0  0  0  0
    3.6691   -0.0203    0.8178 C   0  0  0  0  0  0  0  0  0  0  0  0
    4.5014   -0.0386    2.0062 N   0  0  0  0  0  0  0  0  0  0  0  0
    4.6196   -1.3718    2.6045 C   0  0  0  0  0  0  0  0  0  0  0  0
    5.4375   -2.2995    1.7017 C   0  0  0  0  0  0  0  0  0  0  0  0
    6.8217   -1.7085    1.4036 C   0  0  0  0  0  0  0  0  0  0  0  0
    6.6739   -0.2793    0.8654 C   0  0  0  0  0  0  0  0  0  0  0  0
    5.8143    0.5793    1.7968 C   0  0  0  0  0  0  0  0  0  0  0  0
    7.5712   -2.5619    0.4455 C   0  0  0  0  0  0  0  0  0  0  0  0
    8.2142   -3.7353    0.8445 C   0  0  0  0  0  0  0  0  0  0  0  0
    8.9004   -4.5087   -0.1002 C   0  0  0  0  0  0  0  0  0  0  0  0
    8.9384   -4.0655   -1.4209 C   0  0  0  0  0  0  0  0  0  0  0  0
    8.2896   -2.8845   -1.7332 C   0  0  0  0  0  0  0  0  0  0  0  0
    7.6178   -2.1277   -0.8373 N   0  0  0  0  0  0  0  0  0  0  0  0
   -0.6665    0.0000    1.2329 C   0  0  0  0  0  0  0  0  0  0  0  0
   -3.8755    0.0023    2.3750 H   0  0  0  0  0  0  0  0  0  0  0  0
   -2.5421    0.8959    3.1431 H   0  0  0  0  0  0  0  0  0  0  0  0
   -2.5426   -0.8691    3.1482 H   0  0  0  0  0  0  0  0  0  0  0  0
   -3.8417   -0.0192    0.0360 H   0  0  0  0  0  0  0  0  0  0  0  0
   -2.6698   -0.0260   -2.0829 H   0  0  0  0  0  0  0  0  0  0  0  0
   -0.1307   -0.0025   -2.1814 H   0  0  0  0  0  0  0  0  0  0  0  0
    1.8504   -0.0840   -0.9047 H   0  0  0  0  0  0  0  0  0  0  0  0
    3.8940    0.8648    0.2098 H   0  0  0  0  0  0  0  0  0  0  0  0
    3.9108   -0.8801    0.1813 H   0  0  0  0  0  0  0  0  0  0  0  0
    3.6247   -1.8144    2.7354 H   0  0  0  0  0  0  0  0  0  0  0  0
    5.0907   -1.3252    3.5938 H   0  0  0  0  0  0  0  0  0  0  0  0
    5.5430   -3.2791    2.1849 H   0  0  0  0  0  0  0  0  0  0  0  0
    4.8863   -2.4722    0.7670 H   0  0  0  0  0  0  0  0  0  0  0  0
    7.3798   -1.6593    2.3493 H   0  0  0  0  0  0  0  0  0  0  0  0
    6.2200   -0.2929   -0.1351 H   0  0  0  0  0  0  0  0  0  0  0  0
    7.6622    0.1836    0.7511 H   0  0  0  0  0  0  0  0  0  0  0  0
    5.6954    1.5672    1.3359 H   0  0  0  0  0  0  0  0  0  0  0  0
    6.3446    0.7219    2.7463 H   0  0  0  0  0  0  0  0  0  0  0  0
    8.1819   -4.0465    1.8852 H   0  0  0  0  0  0  0  0  0  0  0  0
    9.3999   -5.4258    0.1930 H   0  0  0  0  0  0  0  0  0  0  0  0
    9.4615   -4.6213   -2.1916 H   0  0  0  0  0  0  0  0  0  0  0  0
    8.2949   -2.5004   -2.7480 H   0  0  0  0  0  0  0  0  0  0  0  0
   -0.1081   -0.0008    2.1662 H   0  0  0  0  0  0  0  0  0  0  0  0
  1  2  1  0
  2  3  2  0
  3  4  1  0
  4  5  2  0
  5  6  1  0
  6  7  1  0
  7  8  1  0
  8  9  2  0
  8 10  1  0
 10 11  1  0
 11 12  1  0
 12 13  1  0
 13 14  1  0
 14 15  1  0
 15 16  1  0
 14 17  1  0
 17 18  2  0
 18 19  1  0
 19 20  2  0
 20 21  1  0
 21 22  2  0
  6 23  2  0
 23  2  1  0
 16 11  1  0
 22 17  1  0
  1 24  1  0
  1 25  1  0
  1 26  1  0
  3 27  1  0
  4 28  1  0
  5 29  1  0
  7 30  1  0
 10 31  1  0
 10 32  1  0
 12 33  1  0
 12 34  1  0
 13 35  1  0
 13 36  1  0
 14 37  1  0
 15 38  1  0
 15 39  1  0
 16 40  1  0
 16 41  1  0
 18 42  1  0
 19 43  1  0
 20 44  1  0
 21 45  1  0
 23 46  1  0
M  END
>  <_MoleculeID>  (76) 
smi8

>  <_InputIndex>  (76) 
8

>  <_InputSMILES>  (76) 
Cc1cccc(NC(=O)CN2CCC(CC2)c2ccccn2)c1

>  <_InputInChIKey>  (76) 
JFCDMGGMCUKHST-UHFFFAOYSA-N

>  <_SMILES>  (76) 
Cc1cccc(NC(=O)CN2CCC(c3ccccn3)CC2)c1

>  <_InChIKey>  (76) 
JFCDMGGMCUKHST-UHFFFAOYSA-N

$$$$
smi8_conf7
     RDKit          3D

 46 48  0  0  0  0  0  0  0  0999 V2000
   -2.7956    0.0123    2.5496 C   0  0  0  0  0  0  0  0  0  0  0  0
   -2.0607    0.0084    1.2581 C   0  0  0  0  0  0  0  0  0  0  0  0
   -2.7542   -0.0063    0.0453 C   0  0  0  0  0  0  0  0  0  0  0  0
   -2.0677   -0.0090   -1.1779 C   0  0  0  0  0  0  0  0  0  0  0  0
   -0.6657   -0.0001   -1.2410 C   0  0  0  0  0  0  0  0  0  0  0  0
    0.0000   -0.0000    0.0000 C   0  0  0  0  0  0  0  0  0  0  0  0
    1.3950    0.0000    0.0000 N   0  0  0  0  0  0  0  0  0  0  0  0
    2.1862    0.0000    1.1436 C   0  0  0  0  0  0  0  0  0  0  0  0
    1.7857   -0.0000    2.3058 O   0  0  0  0  0  0  0  0  0  0  0  0
    3.6691   -0.0203    0.8178 C   0  0  0  0  0  0  0  0  0  0  0  0
    4.5014   -0.0386    2.0062 N   0  0  0  0  0  0  0  0  0  0  0  0
    5.8680    0.4124    1.7010 C   0  0  0  0  0  0  0  0  0  0  0  0
    6.9250   -0.0847    2.7002 C   0  0  0  0  0  0  0  0  0  0  0  0
    6.3264   -0.2744    4.0931 C   0  0  0  0  0  0  0  0  0  0  0  0
    5.1486   -1.2621    4.0413 C   0  0  0  0  0  0  0  0  0  0  0  0
    4.4920   -1.3475    2.6556 C   0  0  0  0  0  0  0  0  0  0  0  0
    7.3567   -0.7219    5.0660 C   0  0  0  0  0  0  0  0  0  0  0  0
    7.7010    0.0405    6.1839 C   0  0  0  0  0  0  0  0  0  0  0  0
    8.6731   -0.4307    7.0752 C   0  0  0  0  0  0  0  0  0  0  0  0
    9.2890   -1.6508    6.8028 C   0  0  0  0  0  0  0  0  0  0  0  0
    8.9035   -2.3386    5.6664 C   0  0  0  0  0  0  0  0  0  0  0  0
    7.9640   -1.9032    4.7978 N   0  0  0  0  0  0  0  0  0  0  0  0
   -0.6665    0.0000    1.2329 C   0  0  0  0  0  0  0  0  0  0  0  0
   -3.8755    0.0023    2.3750 H   0  0  0  0  0  0  0  0  0  0  0  0
   -2.5421    0.8959    3.1431 H   0  0  0  0  0  0  0  0  0  0  0  0
   -2.5426   -0.8691    3.1482 H   0  0  0  0  0  0  0  0  0  0  0  0
   -3.8417   -0.0192    0.0360 H   0  0  0  0  0  0  0  0  0  0  0  0
   -2.6698   -0.0260   -2.0829 H   0  0  0  0  0  0  0  0  0  0  0  0
   -0.1307   -0.0025   -2.1814 H   0  0  0  0  0  0  0  0  0  0  0  0
    1.8504   -0.0840   -0.9047 H   0  0  0  0  0  0  0  0  0  0  0  0
    3.8940    0.8648    0.2098 H   0  0  0  0  0  0  0  0  0  0  0  0
    3.9108   -0.8801    0.1813 H   0  0  0  0  0  0  0  0  0  0  0  0
    5.8683    1.5091    1.6983 H   0  0  0  0  0  0  0  0  0  0  0  0
    6.1826    0.0927    0.6988 H   0  0  0  0  0  0  0  0  0  0  0  0
    7.7606    0.6257    2.7271 H   0  0  0  0  0  0  0  0  0  0  0  0
    7.3369   -1.0389    2.3433 H   0  0  0  0  0  0  0  0  0  0  0  0
    5.9510    0.6969    4.4414 H   0  0  0  0  0  0  0  0  0  0  0  0
    4.3997   -0.9456    4.7797 H   0  0  0  0  0  0  0  0  0  0  0  0
    5.4596   -2.2727    4.3362 H   0  0  0  0  0  0  0  0  0  0  0  0
    3.4650   -1.7091    2.7908 H   0  0  0  0  0  0  0  0  0  0  0  0
    5.0104   -2.0923    2.0372 H   0  0  0  0  0  0  0  0  0  0  0  0
    7.2156    0.9966    6.3607 H   0  0  0  0  0  0  0  0  0  0  0  0
    8.9472    0.1471    7.9512 H   0  0  0  0  0  0  0  0  0  0  0  0
   10.0533   -2.0591    7.4552 H   0  0  0  0  0  0  0  0  0  0  0  0
    9.3578   -3.2911    5.4137 H   0  0  0  0  0  0  0  0  0  0  0  0
   -0.1081   -0.0008    2.1662 H   0  0  0  0  0  0  0  0  0  0  0  0
  1  2  1  0
  2  3  2  0
  3  4  1  0
  4  5  2  0
  5  6  1  0
  6  7  1  0
  7  8  1  0
  8  9  2  0
  8 10  1  0
 10 11  1  0
 11 12  1  0
 12 13  1  0
 13 14  1  0
 14 15  1  0
 15 16  1  0
 14 17  1  0
 17 18  2  0
 18 19  1  0
 19 20  2  0
 20 21  1  0
 21 22  2  0
  6 23  2  0
 23  2  1  0
 16 11  1  0
 22 17  1  0
  1 24  1  0
  1 25  1  0
  1 26  1  0
  3 27  1  0
  4 28  1  0
  5 29  1  0
  7 30  1  0
 10 31  1  0
 10 32  1  0
 12 33  1  0
 12 34  1  0
 13 35  1  0
 13 36  1  0
 14 37  1  0
 15 38  1  0
 15 39  1  0
 16 40  1  0
 16 41  1  0
 18 42  1  0
 19 43  1  0
 20 44  1  0
 21 45  1  0
 23 46  1  0
M  END
>  <_MoleculeID>  (77) 
smi8

>  <_InputIndex>  (77) 
8

>  <_InputSMILES>  (77) 
Cc1cccc(NC(=O)CN2CCC(CC2)c2ccccn2)c1

>  <_InputInChIKey>  (77) 
JFCDMGGMCUKHST-UHFFFAOYSA-N

>  <_SMILES>  (77) 
Cc1cccc(NC(=O)CN2CCC(c3ccccn3)CC2)c1

>  <_InChIKey>  (77) 
JFCDMGGMCUKHST-UHFFFAOYSA-N

$$$$
smi8_conf8
     RDKit          3D

 46 48  0  0  0  0  0  0  0  0999 V2000
   -2.7956    0.0123    2.5496 C   0  0  0  0  0  0  0  0  0  0  0  0
   -2.0607    0.0084    1.2581 C   0  0  0  0  0  0  0  0  0  0  0  0
   -2.7542   -0.0063    0.0453 C   0  0  0  0  0  0  0  0  0  0  0  0
   -2.0677   -0.0090   -1.1779 C   0  0  0  0  0  0  0  0  0  0  0  0
   -0.6657   -0.0001   -1.2410 C   0  0  0  0  0  0  0  0  0  0  0  0
    0.0000   -0.0000    0.0000 C   0  0  0  0  0  0  0  0  0  0  0  0
    1.3950   -0.0000    0.0000 N   0  0  0  0  0  0  0  0  0  0  0  0
    2.1862   -0.0000   -1.1436 C   0  0  0  0  0  0  0  0  0  0  0  0
    1.7857   -0.0000   -2.3058 O   0  0  0  0  0  0  0  0  0  0  0  0
    3.6691    0.0203   -0.8178 C   0  0  0  0  0  0  0  0  0  0  0  0
    4.5014    0.0386   -2.0062 N   0  0  0  0  0  0  0  0  0  0  0  0
    4.4007    1.3311   -2.7017 C   0  0  0  0  0  0  0  0  0  0  0  0
    5.6072    1.6505   -3.5989 C   0  0  0  0  0  0  0  0  0  0  0  0
    6.2419    0.3749   -4.1508 C   0  0  0  0  0  0  0  0  0  0  0  0
    6.6741   -0.5505   -3.0009 C   0  0  0  0  0  0  0  0  0  0  0  0
    5.8876   -0.3107   -1.7039 C   0  0  0  0  0  0  0  0  0  0  0  0
    7.3868    0.6862   -5.0455 C   0  0  0  0  0  0  0  0  0  0  0  0
    7.8451   -0.2191   -6.0046 C   0  0  0  0  0  0  0  0  0  0  0  0
    8.9231    0.1267   -6.8291 C   0  0  0  0  0  0  0  0  0  0  0  0
    9.5255    1.3705   -6.6489 C   0  0  0  0  0  0  0  0  0  0  0  0
    9.0227    2.2044   -5.6665 C   0  0  0  0  0  0  0  0  0  0  0  0
    7.9803    1.8910   -4.8654 N   0  0  0  0  0  0  0  0  0  0  0  0
   -0.6665    0.0000    1.2329 C   0  0  0  0  0  0  0  0  0  0  0  0
   -3.8755    0.0023    2.3750 H   0  0  0  0  0  0  0  0  0  0  0  0
   -2.5421    0.8959    3.1431 H   0  0  0  0  0  0  0  0  0  0  0  0
   -2.5426   -0.8691    3.1482 H   0  0  0  0  0  0  0  0  0  0  0  0
   -3.8417   -0.0192    0.0360 H   0  0  0  0  0  0  0  0  0  0  0  0
   -2.6698   -0.0260   -2.0829 H   0  0  0  0  0  0  0  0  0  0  0  0
   -0.1307   -0.0025   -2.1814 H   0  0  0  0  0  0  0  0  0  0  0  0
    1.8504    0.0840    0.9047 H   0  0  0  0  0  0  0  0  0  0  0  0
    3.8940   -0.8648   -0.2098 H   0  0  0  0  0  0  0  0  0  0  0  0
    3.9108    0.8801   -0.1813 H   0  0  0  0  0  0  0  0  0  0  0  0
    3.4936    1.3125   -3.3178 H   0  0  0  0  0  0  0  0  0  0  0  0
    4.2855    2.1614   -1.9926 H   0  0  0  0  0  0  0  0  0  0  0  0
    5.2878    2.3124   -4.4135 H   0  0  0  0  0  0  0  0  0  0  0  0
    6.3517    2.2094   -3.0152 H   0  0  0  0  0  0  0  0  0  0  0  0
    5.4902   -0.1494   -4.7556 H   0  0  0  0  0  0  0  0  0  0  0  0
    6.5346   -1.5910   -3.3238 H   0  0  0  0  0  0  0  0  0  0  0  0
    7.7435   -0.4410   -2.7787 H   0  0  0  0  0  0  0  0  0  0  0  0
    5.9374   -1.2285   -1.1048 H   0  0  0  0  0  0  0  0  0  0  0  0
    6.3677    0.4797   -1.1116 H   0  0  0  0  0  0  0  0  0  0  0  0
    7.3662   -1.1889   -6.1100 H   0  0  0  0  0  0  0  0  0  0  0  0
    9.2870   -0.5632   -7.5827 H   0  0  0  0  0  0  0  0  0  0  0  0
   10.3681    1.6864   -7.2544 H   0  0  0  0  0  0  0  0  0  0  0  0
    9.4618    3.1808   -5.4896 H   0  0  0  0  0  0  0  0  0  0  0  0
   -0.1081   -0.0008    2.1662 H   0  0  0  0  0  0  0  0  0  0  0  0
  1  2  1  0
  2  3  2  0
  3  4  1  0
  4  5  2  0
  5  6  1  0
  6  7  1  0
  7  8  1  0
  8  9  2  0
  8 10  1  0
 10 11  1  0
 11 12  1  0
 12 13  1  0
 13 14  1  0
 14 15  1  0
 15 16  1  0
 14 17  1  0
 17 18  2  0
 18 19  1  0
 19 20  2  0
 20 21  1  0
 21 22  2  0
  6 23  2  0
 23  2  1  0
 16 11  1  0
 22 17  1  0
  1 24  1  0
  1 25  1  0
  1 26  1  0
  3 27  1  0
  4 28  1  0
  5 29  1  0
  7 30  1  0
 10 31  1  0
 10 32  1  0
 12 33  1  0
 12 34  1  0
 13 35  1  0
 13 36  1  0
 14 37  1  0
 15 38  1  0
 15 39  1  0
 16 40  1  0
 16 41  1  0
 18 42  1  0
 19 43  1  0
 20 44  1  0
 21 45  1  0
 23 46  1  0
M  END
>  <_MoleculeID>  (78) 
smi8

>  <_InputIndex>  (78) 
8

>  <_InputSMILES>  (78) 
Cc1cccc(NC(=O)CN2CCC(CC2)c2ccccn2)c1

>  <_InputInChIKey>  (78) 
JFCDMGGMCUKHST-UHFFFAOYSA-N

>  <_SMILES>  (78) 
Cc1cccc(NC(=O)CN2CCC(c3ccccn3)CC2)c1

>  <_InChIKey>  (78) 
JFCDMGGMCUKHST-UHFFFAOYSA-N

$$$$
smi8_conf9
     RDKit          3D

 46 48  0  0  0  0  0  0  0  0999 V2000
   -2.7956    0.0123    2.5496 C   0  0  0  0  0  0  0  0  0  0  0  0
   -2.0607    0.0084    1.2581 C   0  0  0  0  0  0  0  0  0  0  0  0
   -2.7542   -0.0063    0.0453 C   0  0  0  0  0  0  0  0  0  0  0  0
   -2.0677   -0.0090   -1.1779 C   0  0  0  0  0  0  0  0  0  0  0  0
   -0.6657   -0.0001   -1.2410 C   0  0  0  0  0  0  0  0  0  0  0  0
    0.0000   -0.0000    0.0000 C   0  0  0  0  0  0  0  0  0  0  0  0
    1.3950   -0.0000    0.0000 N   0  0  0  0  0  0  0  0  0  0  0  0
    2.1862   -0.0000   -1.1436 C   0  0  0  0  0  0  0  0  0  0  0  0
    1.7857    0.0000   -2.3058 O   0  0  0  0  0  0  0  0  0  0  0  0
    3.6691    0.0203   -0.8178 C   0  0  0  0  0  0  0  0  0  0  0  0
    4.5014    0.0386   -2.0062 N   0  0  0  0  0  0  0  0  0  0  0  0
    5.8502    0.5211   -1.7176 C   0  0  0  0  0  0  0  0  0  0  0  0
    6.6131    0.7897   -3.0230 C   0  0  0  0  0  0  0  0  0  0  0  0
    6.2649   -0.2052   -4.1431 C   0  0  0  0  0  0  0  0  0  0  0  0
    5.7488   -1.5156   -3.5506 C   0  0  0  0  0  0  0  0  0  0  0  0
    4.5188   -1.2794   -2.6595 C   0  0  0  0  0  0  0  0  0  0  0  0
    7.4322   -0.4386   -5.0325 C   0  0  0  0  0  0  0  0  0  0  0  0
    8.6253   -0.9891   -4.5601 C   0  0  0  0  0  0  0  0  0  0  0  0
    9.6933   -1.1965   -5.4420 C   0  0  0  0  0  0  0  0  0  0  0  0
    9.5367   -0.8222   -6.7753 C   0  0  0  0  0  0  0  0  0  0  0  0
    8.3293   -0.2689   -7.1616 C   0  0  0  0  0  0  0  0  0  0  0  0
    7.2857   -0.0662   -6.3271 N   0  0  0  0  0  0  0  0  0  0  0  0
   -0.6665    0.0000    1.2329 C   0  0  0  0  0  0  0  0  0  0  0  0
   -3.8755    0.0023    2.3750 H   0  0  0  0  0  0  0  0  0  0  0  0
   -2.5421    0.8959    3.1431 H   0  0  0  0  0  0  0  0  0  0  0  0
   -2.5426   -0.8691    3.1482 H   0  0  0  0  0  0  0  0  0  0  0  0
   -3.8417   -0.0192    0.0360 H   0  0  0  0  0  0  0  0  0  0  0  0
   -2.6698   -0.0260   -2.0829 H   0  0  0  0  0  0  0  0  0  0  0  0
   -0.1307   -0.0025   -2.1814 H   0  0  0  0  0  0  0  0  0  0  0  0
    1.8504    0.0840    0.9047 H   0  0  0  0  0  0  0  0  0  0  0  0
    3.8940   -0.8648   -0.2098 H   0  0  0  0  0  0  0  0  0  0  0  0
    3.9108    0.8801   -0.1813 H   0  0  0  0  0  0  0  0  0  0  0  0
    6.3990   -0.2036   -1.1015 H   0  0  0  0  0  0  0  0  0  0  0  0
    5.8163    1.4581   -1.1480 H   0  0  0  0  0  0  0  0  0  0  0  0
    7.6879    0.7817   -2.7999 H   0  0  0  0  0  0  0  0  0  0  0  0
    6.3825    1.8033   -3.3773 H   0  0  0  0  0  0  0  0  0  0  0  0
    5.4683    0.2306   -4.7605 H   0  0  0  0  0  0  0  0  0  0  0  0
    6.5413   -1.9865   -2.9525 H   0  0  0  0  0  0  0  0  0  0  0  0
    5.4905   -2.2284   -4.3435 H   0  0  0  0  0  0  0  0  0  0  0  0
    4.4807   -2.0935   -1.9237 H   0  0  0  0  0  0  0  0  0  0  0  0
    3.6133   -1.3637   -3.2725 H   0  0  0  0  0  0  0  0  0  0  0  0
    8.7239   -1.2551   -3.5111 H   0  0  0  0  0  0  0  0  0  0  0  0
   10.6244   -1.6286   -5.0916 H   0  0  0  0  0  0  0  0  0  0  0  0
   10.3336   -0.9534   -7.4993 H   0  0  0  0  0  0  0  0  0  0  0  0
    8.1638    0.0392   -8.1888 H   0  0  0  0  0  0  0  0  0  0  0  0
   -0.1081   -0.0008    2.1662 H   0  0  0  0  0  0  0  0  0  0  0  0
  1  2  1  0
  2  3  2  0
  3  4  1  0
  4  5  2  0
  5  6  1  0
  6  7  1  0
  7  8  1  0
  8  9  2  0
  8 10  1  0
 10 11  1  0
 11 12  1  0
 12 13  1  0
 13 14  1  0
 14 15  1  0
 15 16  1  0
 14 17  1  0
 17 18  2  0
 18 19  1  0
 19 20  2  0
 20 21  1  0
 21 22  2  0
  6 23  2  0
 23  2  1  0
 16 11  1  0
 22 17  1  0
  1 24  1  0
  1 25  1  0
  1 26  1  0
  3 27  1  0
  4 28  1  0
  5 29  1  0
  7 30  1  0
 10 31  1  0
 10 32  1  0
 12 33  1  0
 12 34  1  0
 13 35  1  0
 13 36  1  0
 14 37  1  0
 15 38  1  0
 15 39  1  0
 16 40  1  0
 16 41  1  0
 18 42  1  0
 19 43  1  0
 20 44  1  0
 21 45  1  0
 23 46  1  0
M  END
>  <_MoleculeID>  (79) 
smi8

>  <_InputIndex>  (79) 
8

>  <_InputSMILES>  (79) 
Cc1cccc(NC(=O)CN2CCC(CC2)c2ccccn2)c1

>  <_InputInChIKey>  (79) 
JFCDMGGMCUKHST-UHFFFAOYSA-N

>  <_SMILES>  (79) 
Cc1cccc(NC(=O)CN2CCC(c3ccccn3)CC2)c1

>  <_InChIKey>  (79) 
JFCDMGGMCUKHST-UHFFFAOYSA-N

$$$$
smi9_conf0
     RDKit          3D

 29 31  0  0  0  0  0  0  0  0999 V2000
    3.6677   -0.9489    4.9092 Cl  0  0  0  0  0  0  0  0  0  0  0  0
    2.8080    0.3963    4.2663 C   0  0  0  0  0  0  0  0  0  0  0  0
    1.9644    1.1561    5.0807 C   0  0  0  0  0  0  0  0  0  0  0  0
    1.2611    2.2544    4.5644 C   0  0  0  0  0  0  0  0  0  0  0  0
    1.3680    2.6367    3.2182 C   0  0  0  0  0  0  0  0  0  0  0  0
    2.2153    1.8400    2.4242 C   0  0  0  0  0  0  0  0  0  0  0  0
    2.3584    2.1765    1.0355 C   0  0  0  0  0  0  0  0  0  0  0  0
    2.8082    3.3083    0.5452 N   0  0  0  0  0  0  0  0  0  0  0  0
    2.7615    3.1684   -0.8189 N   0  0  0  0  0  0  0  0  0  0  0  0
    2.2961    1.9748   -1.1614 N   0  0  0  0  0  0  0  0  0  0  0  0
    2.0236    1.3413   -0.0000 N   0  0  0  0  0  0  0  0  0  0  0  0
    1.4860    0.0000    0.0000 C   0  0  0  0  0  0  0  0  0  0  0  0
    0.0000    0.0000    0.0000 C   0  0  0  0  0  0  0  0  0  0  0  0
   -0.7296    0.0000    1.1874 C   0  0  0  0  0  0  0  0  0  0  0  0
   -2.1280    0.0098    1.1120 C   0  0  0  0  0  0  0  0  0  0  0  0
   -2.7559   -0.0027   -0.1350 C   0  0  0  0  0  0  0  0  0  0  0  0
   -2.0445    0.0073   -1.2882 N   0  0  0  0  0  0  0  0  0  0  0  0
   -0.6962    0.0036   -1.1953 C   0  0  0  0  0  0  0  0  0  0  0  0
    2.9246    0.7372    2.9193 C   0  0  0  0  0  0  0  0  0  0  0  0
    3.9410   -0.1902    1.8856 Cl  0  0  0  0  0  0  0  0  0  0  0  0
    1.8401    0.9006    6.1305 H   0  0  0  0  0  0  0  0  0  0  0  0
    0.6184    2.7980    5.2525 H   0  0  0  0  0  0  0  0  0  0  0  0
    0.8277    3.4826    2.8143 H   0  0  0  0  0  0  0  0  0  0  0  0
    1.8618   -0.5398   -0.8750 H   0  0  0  0  0  0  0  0  0  0  0  0
    1.8950   -0.5216    0.8718 H   0  0  0  0  0  0  0  0  0  0  0  0
   -0.2271    0.0036    2.1485 H   0  0  0  0  0  0  0  0  0  0  0  0
   -2.7237    0.0273    2.0208 H   0  0  0  0  0  0  0  0  0  0  0  0
   -3.8340   -0.0022   -0.2356 H   0  0  0  0  0  0  0  0  0  0  0  0
   -0.1694    0.0061   -2.1439 H   0  0  0  0  0  0  0  0  0  0  0  0
  1  2  1  0
  2  3  2  0
  3  4  1  0
  4  5  2  0
  5  6  1  0
  6  7  1  0
  7  8  2  0
  8  9  1  0
  9 10  2  0
 10 11  1  0
 11 12  1  0
 12 13  1  0
 13 14  2  0
 14 15  1  0
 15 16  2  0
 16 17  1  0
 17 18  2  0
  6 19  2  0
 19 20  1  0
 19  2  1  0
 11  7  1  0
 18 13  1  0
  3 21  1  0
  4 22  1  0
  5 23  1  0
 12 24  1  0
 12 25  1  0
 14 26  1  0
 15 27  1  0
 16 28  1  0
 18 29  1  0
M  END
>  <_MoleculeID>  (80) 
smi9

>  <_InputIndex>  (80) 
9

>  <_InputSMILES>  (80) 
Clc1cccc(-c2nnnn2Cc2cccnc2)c1Cl

>  <_InputInChIKey>  (80) 
MMPAULQSJLVKHP-UHFFFAOYSA-N

>  <_SMILES>  (80) 
Clc1cccc(-c2nnnn2Cc2cccnc2)c1Cl

>  <_InChIKey>  (80) 
MMPAULQSJLVKHP-UHFFFAOYSA-N

$$$$
smi9_conf1
     RDKit          3D

 29 31  0  0  0  0  0  0  0  0999 V2000
    3.6677    0.9489   -4.9092 Cl  0  0  0  0  0  0  0  0  0  0  0  0
    2.8080   -0.3963   -4.2663 C   0  0  0  0  0  0  0  0  0  0  0  0
    1.9644   -1.1561   -5.0807 C   0  0  0  0  0  0  0  0  0  0  0  0
    1.2611   -2.2544   -4.5644 C   0  0  0  0  0  0  0  0  0  0  0  0
    1.3680   -2.6367   -3.2182 C   0  0  0  0  0  0  0  0  0  0  0  0
    2.2153   -1.8400   -2.4242 C   0  0  0  0  0  0  0  0  0  0  0  0
    2.3584   -2.1765   -1.0355 C   0  0  0  0  0  0  0  0  0  0  0  0
    2.8082   -3.3083   -0.5452 N   0  0  0  0  0  0  0  0  0  0  0  0
    2.7615   -3.1684    0.8189 N   0  0  0  0  0  0  0  0  0  0  0  0
    2.2961   -1.9748    1.1614 N   0  0  0  0  0  0  0  0  0  0  0  0
    2.0236   -1.3413    0.0000 N   0  0  0  0  0  0  0  0  0  0  0  0
    1.4860   -0.0000    0.0000 C   0  0  0  0  0  0  0  0  0  0  0  0
    0.0000    0.0000    0.0000 C   0  0  0  0  0  0  0  0  0  0  0  0
   -0.7296    0.0000    1.1874 C   0  0  0  0  0  0  0  0  0  0  0  0
   -2.1280    0.0098    1.1120 C   0  0  0  0  0  0  0  0  0  0  0  0
   -2.7559   -0.0027   -0.1350 C   0  0  0  0  0  0  0  0  0  0  0  0
   -2.0445    0.0073   -1.2882 N   0  0  0  0  0  0  0  0  0  0  0  0
   -0.6962    0.0036   -1.1953 C   0  0  0  0  0  0  0  0  0  0  0  0
    2.9246   -0.7372   -2.9193 C   0  0  0  0  0  0  0  0  0  0  0  0
    3.9410    0.1902   -1.8856 Cl  0  0  0  0  0  0  0  0  0  0  0  0
    1.8401   -0.9006   -6.1305 H   0  0  0  0  0  0  0  0  0  0  0  0
    0.6184   -2.7980   -5.2525 H   0  0  0  0  0  0  0  0  0  0  0  0
    0.8277   -3.4826   -2.8143 H   0  0  0  0  0  0  0  0  0  0  0  0
    1.8618    0.5398    0.8750 H   0  0  0  0  0  0  0  0  0  0  0  0
    1.8950    0.5216   -0.8718 H   0  0  0  0  0  0  0  0  0  0  0  0
   -0.2271    0.0036    2.1485 H   0  0  0  0  0  0  0  0  0  0  0  0
   -2.7237    0.0273    2.0208 H   0  0  0  0  0  0  0  0  0  0  0  0
   -3.8340   -0.0022   -0.2356 H   0  0  0  0  0  0  0  0  0  0  0  0
   -0.1694    0.0061   -2.1439 H   0  0  0  0  0  0  0  0  0  0  0  0
  1  2  1  0
  2  3  2  0
  3  4  1  0
  4  5  2  0
  5  6  1  0
  6  7  1  0
  7  8  2  0
  8  9  1  0
  9 10  2  0
 10 11  1  0
 11 12  1  0
 12 13  1  0
 13 14  2  0
 14 15  1  0
 15 16  2  0
 16 17  1  0
 17 18  2  0
  6 19  2  0
 19 20  1  0
 19  2  1  0
 11  7  1  0
 18 13  1  0
  3 21  1  0
  4 22  1  0
  5 23  1  0
 12 24  1  0
 12 25  1  0
 14 26  1  0
 15 27  1  0
 16 28  1  0
 18 29  1  0
M  END
>  <_MoleculeID>  (81) 
smi9

>  <_InputIndex>  (81) 
9

>  <_InputSMILES>  (81) 
Clc1cccc(-c2nnnn2Cc2cccnc2)c1Cl

>  <_InputInChIKey>  (81) 
MMPAULQSJLVKHP-UHFFFAOYSA-N

>  <_SMILES>  (81) 
Clc1cccc(-c2nnnn2Cc2cccnc2)c1Cl

>  <_InChIKey>  (81) 
MMPAULQSJLVKHP-UHFFFAOYSA-N

$$$$
smi9_conf2
     RDKit          3D

 29 31  0  0  0  0  0  0  0  0999 V2000
    3.6617    0.9995    4.8698 Cl  0  0  0  0  0  0  0  0  0  0  0  0
    2.8163   -0.3641    4.2472 C   0  0  0  0  0  0  0  0  0  0  0  0
    2.0153   -1.1465    5.0829 C   0  0  0  0  0  0  0  0  0  0  0  0
    1.3223   -2.2588    4.5827 C   0  0  0  0  0  0  0  0  0  0  0  0
    1.4021   -2.6366    3.2334 C   0  0  0  0  0  0  0  0  0  0  0  0
    2.2295   -1.8343    2.4242 C   0  0  0  0  0  0  0  0  0  0  0  0
    2.3584   -2.1765    1.0355 C   0  0  0  0  0  0  0  0  0  0  0  0
    2.8150   -3.3056    0.5452 N   0  0  0  0  0  0  0  0  0  0  0  0
    2.7520   -3.1722   -0.8189 N   0  0  0  0  0  0  0  0  0  0  0  0
    2.2641   -1.9876   -1.1614 N   0  0  0  0  0  0  0  0  0  0  0  0
    2.0236   -1.3413    0.0000 N   0  0  0  0  0  0  0  0  0  0  0  0
    1.4860    0.0000    0.0000 C   0  0  0  0  0  0  0  0  0  0  0  0
    0.0000    0.0000    0.0000 C   0  0  0  0  0  0  0  0  0  0  0  0
   -0.7296    0.0000    1.1874 C   0  0  0  0  0  0  0  0  0  0  0  0
   -2.1280    0.0098    1.1120 C   0  0  0  0  0  0  0  0  0  0  0  0
   -2.7559   -0.0027   -0.1350 C   0  0  0  0  0  0  0  0  0  0  0  0
   -2.0445    0.0073   -1.2882 N   0  0  0  0  0  0  0  0  0  0  0  0
   -0.6962    0.0036   -1.1953 C   0  0  0  0  0  0  0  0  0  0  0  0
    2.9324   -0.7208    2.9043 C   0  0  0  0  0  0  0  0  0  0  0  0
    3.9263    0.2114    1.8530 Cl  0  0  0  0  0  0  0  0  0  0  0  0
    1.9220   -0.9021    6.1385 H   0  0  0  0  0  0  0  0  0  0  0  0
    0.7217   -2.8261    5.2894 H   0  0  0  0  0  0  0  0  0  0  0  0
    0.8703   -3.4936    2.8421 H   0  0  0  0  0  0  0  0  0  0  0  0
    1.8618    0.5398    0.8750 H   0  0  0  0  0  0  0  0  0  0  0  0
    1.8950    0.5216   -0.8718 H   0  0  0  0  0  0  0  0  0  0  0  0
   -0.2271    0.0036    2.1485 H   0  0  0  0  0  0  0  0  0  0  0  0
   -2.7237    0.0273    2.0208 H   0  0  0  0  0  0  0  0  0  0  0  0
   -3.8340   -0.0022   -0.2356 H   0  0  0  0  0  0  0  0  0  0  0  0
   -0.1694    0.0061   -2.1439 H   0  0  0  0  0  0  0  0  0  0  0  0
  1  2  1  0
  2  3  2  0
  3  4  1  0
  4  5  2  0
  5  6  1  0
  6  7  1  0
  7  8  2  0
  8  9  1  0
  9 10  2  0
 10 11  1  0
 11 12  1  0
 12 13  1  0
 13 14  2  0
 14 15  1  0
 15 16  2  0
 16 17  1  0
 17 18  2  0
  6 19  2  0
 19 20  1  0
 19  2  1  0
 11  7  1  0
 18 13  1  0
  3 21  1  0
  4 22  1  0
  5 23  1  0
 12 24  1  0
 12 25  1  0
 14 26  1  0
 15 27  1  0
 16 28  1  0
 18 29  1  0
M  END
>  <_MoleculeID>  (82) 
smi9

>  <_InputIndex>  (82) 
9

>  <_InputSMILES>  (82) 
Clc1cccc(-c2nnnn2Cc2cccnc2)c1Cl

>  <_InputInChIKey>  (82) 
MMPAULQSJLVKHP-UHFFFAOYSA-N

>  <_SMILES>  (82) 
Clc1cccc(-c2nnnn2Cc2cccnc2)c1Cl

>  <_InChIKey>  (82) 
MMPAULQSJLVKHP-UHFFFAOYSA-N

$$$$
smi9_conf3
     RDKit          3D

 29 31  0  0  0  0  0  0  0  0999 V2000
    3.6617   -0.9995   -4.8698 Cl  0  0  0  0  0  0  0  0  0  0  0  0
    2.8163    0.3641   -4.2472 C   0  0  0  0  0  0  0  0  0  0  0  0
    2.0153    1.1465   -5.0829 C   0  0  0  0  0  0  0  0  0  0  0  0
    1.3223    2.2588   -4.5827 C   0  0  0  0  0  0  0  0  0  0  0  0
    1.4021    2.6366   -3.2334 C   0  0  0  0  0  0  0  0  0  0  0  0
    2.2295    1.8343   -2.4242 C   0  0  0  0  0  0  0  0  0  0  0  0
    2.3584    2.1765   -1.0355 C   0  0  0  0  0  0  0  0  0  0  0  0
    2.8150    3.3056   -0.5452 N   0  0  0  0  0  0  0  0  0  0  0  0
    2.7520    3.1722    0.8189 N   0  0  0  0  0  0  0  0  0  0  0  0
    2.2641    1.9876    1.1614 N   0  0  0  0  0  0  0  0  0  0  0  0
    2.0236    1.3413   -0.0000 N   0  0  0  0  0  0  0  0  0  0  0  0
    1.4860    0.0000   -0.0000 C   0  0  0  0  0  0  0  0  0  0  0  0
    0.0000    0.0000    0.0000 C   0  0  0  0  0  0  0  0  0  0  0  0
   -0.7296    0.0000    1.1874 C   0  0  0  0  0  0  0  0  0  0  0  0
   -2.1280    0.0098    1.1120 C   0  0  0  0  0  0  0  0  0  0  0  0
   -2.7559   -0.0027   -0.1350 C   0  0  0  0  0  0  0  0  0  0  0  0
   -2.0445    0.0073   -1.2882 N   0  0  0  0  0  0  0  0  0  0  0  0
   -0.6962    0.0036   -1.1953 C   0  0  0  0  0  0  0  0  0  0  0  0
    2.9324    0.7208   -2.9043 C   0  0  0  0  0  0  0  0  0  0  0  0
    3.9263   -0.2114   -1.8530 Cl  0  0  0  0  0  0  0  0  0  0  0  0
    1.9220    0.9021   -6.1385 H   0  0  0  0  0  0  0  0  0  0  0  0
    0.7217    2.8261   -5.2894 H   0  0  0  0  0  0  0  0  0  0  0  0
    0.8703    3.4936   -2.8421 H   0  0  0  0  0  0  0  0  0  0  0  0
    1.8618   -0.5398   -0.8750 H   0  0  0  0  0  0  0  0  0  0  0  0
    1.8950   -0.5216    0.8718 H   0  0  0  0  0  0  0  0  0  0  0  0
   -0.2271    0.0036    2.1485 H   0  0  0  0  0  0  0  0  0  0  0  0
   -2.7237    0.0273    2.0208 H   0  0  0  0  0  0  0  0  0  0  0  0
   -3.8340   -0.0022   -0.2356 H   0  0  0  0  0  0  0  0  0  0  0  0
   -0.1694    0.0061   -2.1439 H   0  0  0  0  0  0  0  0  0  0  0  0
  1  2  1  0
  2  3  2  0
  3  4  1  0
  4  5  2  0
  5  6  1  0
  6  7  1  0
  7  8  2  0
  8  9  1  0
  9 10  2  0
 10 11  1  0
 11 12  1  0
 12 13  1  0
 13 14  2  0
 14 15  1  0
 15 16  2  0
 16 17  1  0
 17 18  2  0
  6 19  2  0
 19 20  1  0
 19  2  1  0
 11  7  1  0
 18 13  1  0
  3 21  1  0
  4 22  1  0
  5 23  1  0
 12 24  1  0
 12 25  1  0
 14 26  1  0
 15 27  1  0
 16 28  1  0
 18 29  1  0
M  END
>  <_MoleculeID>  (83) 
smi9

>  <_InputIndex>  (83) 
9

>  <_InputSMILES>  (83) 
Clc1cccc(-c2nnnn2Cc2cccnc2)c1Cl

>  <_InputInChIKey>  (83) 
MMPAULQSJLVKHP-UHFFFAOYSA-N

>  <_SMILES>  (83) 
Clc1cccc(-c2nnnn2Cc2cccnc2)c1Cl

>  <_InChIKey>  (83) 
MMPAULQSJLVKHP-UHFFFAOYSA-N

$$$$
smi9_conf4
     RDKit          3D

 29 31  0  0  0  0  0  0  0  0999 V2000
    3.6677   -4.9092   -0.9489 Cl  0  0  0  0  0  0  0  0  0  0  0  0
    2.8080   -4.2663    0.3963 C   0  0  0  0  0  0  0  0  0  0  0  0
    1.9644   -5.0807    1.1561 C   0  0  0  0  0  0  0  0  0  0  0  0
    1.2611   -4.5644    2.2544 C   0  0  0  0  0  0  0  0  0  0  0  0
    1.3680   -3.2182    2.6367 C   0  0  0  0  0  0  0  0  0  0  0  0
    2.2153   -2.4242    1.8400 C   0  0  0  0  0  0  0  0  0  0  0  0
    2.3584   -1.0355    2.1765 C   0  0  0  0  0  0  0  0  0  0  0  0
    2.8082   -0.5452    3.3083 N   0  0  0  0  0  0  0  0  0  0  0  0
    2.7615    0.8189    3.1684 N   0  0  0  0  0  0  0  0  0  0  0  0
    2.2961    1.1614    1.9748 N   0  0  0  0  0  0  0  0  0  0  0  0
    2.0236    0.0000    1.3413 N   0  0  0  0  0  0  0  0  0  0  0  0
    1.4860   -0.0000    0.0000 C   0  0  0  0  0  0  0  0  0  0  0  0
    0.0000    0.0000    0.0000 C   0  0  0  0  0  0  0  0  0  0  0  0
   -0.7296    0.0000    1.1874 C   0  0  0  0  0  0  0  0  0  0  0  0
   -2.1280    0.0098    1.1120 C   0  0  0  0  0  0  0  0  0  0  0  0
   -2.7559   -0.0027   -0.1350 C   0  0  0  0  0  0  0  0  0  0  0  0
   -2.0445    0.0073   -1.2882 N   0  0  0  0  0  0  0  0  0  0  0  0
   -0.6962    0.0036   -1.1953 C   0  0  0  0  0  0  0  0  0  0  0  0
    2.9246   -2.9193    0.7372 C   0  0  0  0  0  0  0  0  0  0  0  0
    3.9410   -1.8856   -0.1902 Cl  0  0  0  0  0  0  0  0  0  0  0  0
    1.8401   -6.1305    0.9006 H   0  0  0  0  0  0  0  0  0  0  0  0
    0.6184   -5.2525    2.7980 H   0  0  0  0  0  0  0  0  0  0  0  0
    0.8277   -2.8143    3.4826 H   0  0  0  0  0  0  0  0  0  0  0  0
    1.8618    0.8750   -0.5398 H   0  0  0  0  0  0  0  0  0  0  0  0
    1.8950   -0.8718   -0.5216 H   0  0  0  0  0  0  0  0  0  0  0  0
   -0.2271    0.0036    2.1485 H   0  0  0  0  0  0  0  0  0  0  0  0
   -2.7237    0.0273    2.0208 H   0  0  0  0  0  0  0  0  0  0  0  0
   -3.8340   -0.0022   -0.2356 H   0  0  0  0  0  0  0  0  0  0  0  0
   -0.1694    0.0061   -2.1439 H   0  0  0  0  0  0  0  0  0  0  0  0
  1  2  1  0
  2  3  2  0
  3  4  1  0
  4  5  2  0
  5  6  1  0
  6  7  1  0
  7  8  2  0
  8  9  1  0
  9 10  2  0
 10 11  1  0
 11 12  1  0
 12 13  1  0
 13 14  2  0
 14 15  1  0
 15 16  2  0
 16 17  1  0
 17 18  2  0
  6 19  2  0
 19 20  1  0
 19  2  1  0
 11  7  1  0
 18 13  1  0
  3 21  1  0
  4 22  1  0
  5 23  1  0
 12 24  1  0
 12 25  1  0
 14 26  1  0
 15 27  1  0
 16 28  1  0
 18 29  1  0
M  END
>  <_MoleculeID>  (84) 
smi9

>  <_InputIndex>  (84) 
9

>  <_InputSMILES>  (84) 
Clc1cccc(-c2nnnn2Cc2cccnc2)c1Cl

>  <_InputInChIKey>  (84) 
MMPAULQSJLVKHP-UHFFFAOYSA-N

>  <_SMILES>  (84) 
Clc1cccc(-c2nnnn2Cc2cccnc2)c1Cl

>  <_InChIKey>  (84) 
MMPAULQSJLVKHP-UHFFFAOYSA-N

$$$$
smi9_conf5
     RDKit          3D

 29 31  0  0  0  0  0  0  0  0999 V2000
    3.6617    4.8698   -0.9995 Cl  0  0  0  0  0  0  0  0  0  0  0  0
    2.8163    4.2472    0.3641 C   0  0  0  0  0  0  0  0  0  0  0  0
    2.0153    5.0829    1.1465 C   0  0  0  0  0  0  0  0  0  0  0  0
    1.3223    4.5827    2.2588 C   0  0  0  0  0  0  0  0  0  0  0  0
    1.4021    3.2334    2.6366 C   0  0  0  0  0  0  0  0  0  0  0  0
    2.2295    2.4242    1.8343 C   0  0  0  0  0  0  0  0  0  0  0  0
    2.3584    1.0355    2.1765 C   0  0  0  0  0  0  0  0  0  0  0  0
    2.8150    0.5452    3.3056 N   0  0  0  0  0  0  0  0  0  0  0  0
    2.7520   -0.8189    3.1722 N   0  0  0  0  0  0  0  0  0  0  0  0
    2.2641   -1.1614    1.9876 N   0  0  0  0  0  0  0  0  0  0  0  0
    2.0236    0.0000    1.3413 N   0  0  0  0  0  0  0  0  0  0  0  0
    1.4860    0.0000    0.0000 C   0  0  0  0  0  0  0  0  0  0  0  0
    0.0000    0.0000    0.0000 C   0  0  0  0  0  0  0  0  0  0  0  0
   -0.7296    0.0000    1.1874 C   0  0  0  0  0  0  0  0  0  0  0  0
   -2.1280    0.0098    1.1120 C   0  0  0  0  0  0  0  0  0  0  0  0
   -2.7559   -0.0027   -0.1350 C   0  0  0  0  0  0  0  0  0  0  0  0
   -2.0445    0.0073   -1.2882 N   0  0  0  0  0  0  0  0  0  0  0  0
   -0.6962    0.0036   -1.1953 C   0  0  0  0  0  0  0  0  0  0  0  0
    2.9324    2.9043    0.7208 C   0  0  0  0  0  0  0  0  0  0  0  0
    3.9263    1.8530   -0.2114 Cl  0  0  0  0  0  0  0  0  0  0  0  0
    1.9220    6.1385    0.9021 H   0  0  0  0  0  0  0  0  0  0  0  0
    0.7217    5.2894    2.8261 H   0  0  0  0  0  0  0  0  0  0  0  0
    0.8703    2.8421    3.4936 H   0  0  0  0  0  0  0  0  0  0  0  0
    1.8618    0.8750   -0.5398 H   0  0  0  0  0  0  0  0  0  0  0  0
    1.8950   -0.8718   -0.5216 H   0  0  0  0  0  0  0  0  0  0  0  0
   -0.2271    0.0036    2.1485 H   0  0  0  0  0  0  0  0  0  0  0  0
   -2.7237    0.0273    2.0208 H   0  0  0  0  0  0  0  0  0  0  0  0
   -3.8340   -0.0022   -0.2356 H   0  0  0  0  0  0  0  0  0  0  0  0
   -0.1694    0.0061   -2.1439 H   0  0  0  0  0  0  0  0  0  0  0  0
  1  2  1  0
  2  3  2  0
  3  4  1  0
  4  5  2  0
  5  6  1  0
  6  7  1  0
  7  8  2  0
  8  9  1  0
  9 10  2  0
 10 11  1  0
 11 12  1  0
 12 13  1  0
 13 14  2  0
 14 15  1  0
 15 16  2  0
 16 17  1  0
 17 18  2  0
  6 19  2  0
 19 20  1  0
 19  2  1  0
 11  7  1  0
 18 13  1  0
  3 21  1  0
  4 22  1  0
  5 23  1  0
 12 24  1  0
 12 25  1  0
 14 26  1  0
 15 27  1  0
 16 28  1  0
 18 29  1  0
M  END
>  <_MoleculeID>  (85) 
smi9

>  <_InputIndex>  (85) 
9

>  <_InputSMILES>  (85) 
Clc1cccc(-c2nnnn2Cc2cccnc2)c1Cl

>  <_InputInChIKey>  (85) 
MMPAULQSJLVKHP-UHFFFAOYSA-N

>  <_SMILES>  (85) 
Clc1cccc(-c2nnnn2Cc2cccnc2)c1Cl

>  <_InChIKey>  (85) 
MMPAULQSJLVKHP-UHFFFAOYSA-N

$$$$
smi9_conf6
     RDKit          3D

 29 31  0  0  0  0  0  0  0  0999 V2000
    3.6677    4.9092    0.9489 Cl  0  0  0  0  0  0  0  0  0  0  0  0
    2.8080    4.2663   -0.3963 C   0  0  0  0  0  0  0  0  0  0  0  0
    1.9644    5.0807   -1.1561 C   0  0  0  0  0  0  0  0  0  0  0  0
    1.2611    4.5644   -2.2544 C   0  0  0  0  0  0  0  0  0  0  0  0
    1.3680    3.2182   -2.6367 C   0  0  0  0  0  0  0  0  0  0  0  0
    2.2153    2.4242   -1.8400 C   0  0  0  0  0  0  0  0  0  0  0  0
    2.3584    1.0355   -2.1765 C   0  0  0  0  0  0  0  0  0  0  0  0
    2.8082    0.5452   -3.3083 N   0  0  0  0  0  0  0  0  0  0  0  0
    2.7615   -0.8189   -3.1684 N   0  0  0  0  0  0  0  0  0  0  0  0
    2.2961   -1.1614   -1.9748 N   0  0  0  0  0  0  0  0  0  0  0  0
    2.0236   -0.0000   -1.3413 N   0  0  0  0  0  0  0  0  0  0  0  0
    1.4860    0.0000   -0.0000 C   0  0  0  0  0  0  0  0  0  0  0  0
    0.0000    0.0000    0.0000 C   0  0  0  0  0  0  0  0  0  0  0  0
   -0.7296    0.0000    1.1874 C   0  0  0  0  0  0  0  0  0  0  0  0
   -2.1280    0.0098    1.1120 C   0  0  0  0  0  0  0  0  0  0  0  0
   -2.7559   -0.0027   -0.1350 C   0  0  0  0  0  0  0  0  0  0  0  0
   -2.0445    0.0073   -1.2882 N   0  0  0  0  0  0  0  0  0  0  0  0
   -0.6962    0.0036   -1.1953 C   0  0  0  0  0  0  0  0  0  0  0  0
    2.9246    2.9193   -0.7372 C   0  0  0  0  0  0  0  0  0  0  0  0
    3.9410    1.8856    0.1902 Cl  0  0  0  0  0  0  0  0  0  0  0  0
    1.8401    6.1305   -0.9006 H   0  0  0  0  0  0  0  0  0  0  0  0
    0.6184    5.2525   -2.7980 H   0  0  0  0  0  0  0  0  0  0  0  0
    0.8277    2.8143   -3.4826 H   0  0  0  0  0  0  0  0  0  0  0  0
    1.8618   -0.8750    0.5398 H   0  0  0  0  0  0  0  0  0  0  0  0
    1.8950    0.8718    0.5216 H   0  0  0  0  0  0  0  0  0  0  0  0
   -0.2271    0.0036    2.1485 H   0  0  0  0  0  0  0  0  0  0  0  0
   -2.7237    0.0273    2.0208 H   0  0  0  0  0  0  0  0  0  0  0  0
   -3.8340   -0.0022   -0.2356 H   0  0  0  0  0  0  0  0  0  0  0  0
   -0.1694    0.0061   -2.1439 H   0  0  0  0  0  0  0  0  0  0  0  0
  1  2  1  0
  2  3  2  0
  3  4  1  0
  4  5  2  0
  5  6  1  0
  6  7  1  0
  7  8  2  0
  8  9  1  0
  9 10  2  0
 10 11  1  0
 11 12  1  0
 12 13  1  0
 13 14  2  0
 14 15  1  0
 15 16  2  0
 16 17  1  0
 17 18  2  0
  6 19  2  0
 19 20  1  0
 19  2  1  0
 11  7  1  0
 18 13  1  0
  3 21  1  0
  4 22  1  0
  5 23  1  0
 12 24  1  0
 12 25  1  0
 14 26  1  0
 15 27  1  0
 16 28  1  0
 18 29  1  0
M  END
>  <_MoleculeID>  (86) 
smi9

>  <_InputIndex>  (86) 
9

>  <_InputSMILES>  (86) 
Clc1cccc(-c2nnnn2Cc2cccnc2)c1Cl

>  <_InputInChIKey>  (86) 
MMPAULQSJLVKHP-UHFFFAOYSA-N

>  <_SMILES>  (86) 
Clc1cccc(-c2nnnn2Cc2cccnc2)c1Cl

>  <_InChIKey>  (86) 
MMPAULQSJLVKHP-UHFFFAOYSA-N

$$$$
smi9_conf7
     RDKit          3D

 29 31  0  0  0  0  0  0  0  0999 V2000
    3.6617   -4.8698    0.9995 Cl  0  0  0  0  0  0  0  0  0  0  0  0
    2.8163   -4.2472   -0.3641 C   0  0  0  0  0  0  0  0  0  0  0  0
    2.0153   -5.0829   -1.1465 C   0  0  0  0  0  0  0  0  0  0  0  0
    1.3223   -4.5827   -2.2588 C   0  0  0  0  0  0  0  0  0  0  0  0
    1.4021   -3.2334   -2.6366 C   0  0  0  0  0  0  0  0  0  0  0  0
    2.2295   -2.4242   -1.8343 C   0  0  0  0  0  0  0  0  0  0  0  0
    2.3584   -1.0355   -2.1765 C   0  0  0  0  0  0  0  0  0  0  0  0
    2.8150   -0.5452   -3.3056 N   0  0  0  0  0  0  0  0  0  0  0  0
    2.7520    0.8189   -3.1722 N   0  0  0  0  0  0  0  0  0  0  0  0
    2.2641    1.1614   -1.9876 N   0  0  0  0  0  0  0  0  0  0  0  0
    2.0236   -0.0000   -1.3413 N   0  0  0  0  0  0  0  0  0  0  0  0
    1.4860   -0.0000    0.0000 C   0  0  0  0  0  0  0  0  0  0  0  0
    0.0000    0.0000    0.0000 C   0  0  0  0  0  0  0  0  0  0  0  0
   -0.7296    0.0000    1.1874 C   0  0  0  0  0  0  0  0  0  0  0  0
   -2.1280    0.0098    1.1120 C   0  0  0  0  0  0  0  0  0  0  0  0
   -2.7559   -0.0027   -0.1350 C   0  0  0  0  0  0  0  0  0  0  0  0
   -2.0445    0.0073   -1.2882 N   0  0  0  0  0  0  0  0  0  0  0  0
   -0.6962    0.0036   -1.1953 C   0  0  0  0  0  0  0  0  0  0  0  0
    2.9324   -2.9043   -0.7208 C   0  0  0  0  0  0  0  0  0  0  0  0
    3.9263   -1.8530    0.2114 Cl  0  0  0  0  0  0  0  0  0  0  0  0
    1.9220   -6.1385   -0.9021 H   0  0  0  0  0  0  0  0  0  0  0  0
    0.7217   -5.2894   -2.8261 H   0  0  0  0  0  0  0  0  0  0  0  0
    0.8703   -2.8421   -3.4936 H   0  0  0  0  0  0  0  0  0  0  0  0
    1.8618   -0.8750    0.5398 H   0  0  0  0  0  0  0  0  0  0  0  0
    1.8950    0.8718    0.5216 H   0  0  0  0  0  0  0  0  0  0  0  0
   -0.2271    0.0036    2.1485 H   0  0  0  0  0  0  0  0  0  0  0  0
   -2.7237    0.0273    2.0208 H   0  0  0  0  0  0  0  0  0  0  0  0
   -3.8340   -0.0022   -0.2356 H   0  0  0  0  0  0  0  0  0  0  0  0
   -0.1694    0.0061   -2.1439 H   0  0  0  0  0  0  0  0  0  0  0  0
  1  2  1  0
  2  3  2  0
  3  4  1  0
  4  5  2  0
  5  6  1  0
  6  7  1  0
  7  8  2  0
  8  9  1  0
  9 10  2  0
 10 11  1  0
 11 12  1  0
 12 13  1  0
 13 14  2  0
 14 15  1  0
 15 16  2  0
 16 17  1  0
 17 18  2  0
  6 19  2  0
 19 20  1  0
 19  2  1  0
 11  7  1  0
 18 13  1  0
  3 21  1  0
  4 22  1  0
  5 23  1  0
 12 24  1  0
 12 25  1  0
 14 26  1  0
 15 27  1  0
 16 28  1  0
 18 29  1  0
M  END
>  <_MoleculeID>  (87) 
smi9

>  <_InputIndex>  (87) 
9

>  <_InputSMILES>  (87) 
Clc1cccc(-c2nnnn2Cc2cccnc2)c1Cl

>  <_InputInChIKey>  (87) 
MMPAULQSJLVKHP-UHFFFAOYSA-N

>  <_SMILES>  (87) 
Clc1cccc(-c2nnnn2Cc2cccnc2)c1Cl

>  <_InChIKey>  (87) 
MMPAULQSJLVKHP-UHFFFAOYSA-N

$$$$
smi10_conf0
     RDKit          3D

 62 65  0  0  0  0  0  0  0  0999 V2000
   -3.2816   -0.0484    1.6766 C   0  0  0  0  0  0  0  0  0  0  0  0
   -2.1746   -0.0225    0.7349 N   0  0  0  0  0  0  0  0  0  0  0  0
   -0.8318    0.0000    1.1232 C   0  0  0  0  0  0  0  0  0  0  0  0
   -0.4646    0.0000    2.2963 O   0  0  0  0  0  0  0  0  0  0  0  0
    0.0000    0.0000    0.0000 N   0  0  0  0  0  0  0  0  0  0  0  0
    1.3950    0.0000    0.0000 C   0  0  0  0  0  0  0  0  0  0  0  0
    2.0882    0.0065   -1.2204 C   0  0  0  0  0  0  0  0  0  0  0  0
    3.4843    0.0138   -1.2462 C   0  0  0  0  0  0  0  0  0  0  0  0
    4.1657    0.0059   -0.0392 C   0  0  0  0  0  0  0  0  0  0  0  0
    3.4723   -0.0047    1.1781 C   0  0  0  0  0  0  0  0  0  0  0  0
    4.4174    0.0330    2.3387 C   0  0  0  0  0  0  0  0  0  0  0  0
    5.7381   -0.3934    1.6761 C   0  0  0  0  0  0  0  0  0  0  0  0
    5.6441    0.0332    0.2014 C   0  0  1  0  0  0  0  0  0  0  0  0
    6.3622   -0.8745   -0.6353 O   0  0  0  0  0  0  0  0  0  0  0  0
    7.3389   -0.1941   -1.3126 C   0  0  0  0  0  0  0  0  0  0  0  0
    8.1080   -0.7377   -2.0937 O   0  0  0  0  0  0  0  0  0  0  0  0
    7.2863    1.1248   -0.9729 N   0  0  0  0  0  0  0  0  0  0  0  0
    8.1499    2.1466   -1.4945 C   0  0  0  0  0  0  0  0  0  0  0  0
    7.5630    2.7741   -2.7524 C   0  0  0  0  0  0  0  0  0  0  0  0
    6.4781    2.4011   -3.2078 O   0  0  0  0  0  0  0  0  0  0  0  0
    8.3341    3.7792   -3.3565 N   0  0  0  0  0  0  0  0  0  0  0  0
    9.6003    4.2498   -2.8693 C   0  0  0  0  0  0  0  0  0  0  0  0
   10.7908    3.6927   -3.5625 C   0  0  0  0  0  0  0  0  0  0  0  0
   11.3263    4.3339   -4.6824 C   0  0  0  0  0  0  0  0  0  0  0  0
   12.4505    3.8149   -5.3415 C   0  0  0  0  0  0  0  0  0  0  0  0
   13.0825    2.6371   -4.9136 C   0  0  0  0  0  0  0  0  0  0  0  0
   14.1579    2.1344   -5.5394 F   0  0  0  0  0  0  0  0  0  0  0  0
   12.5073    2.0103   -3.7913 C   0  0  0  0  0  0  0  0  0  0  0  0
   11.3832    2.5105   -3.1201 C   0  0  0  0  0  0  0  0  0  0  0  0
    7.8460    4.3904   -4.5607 C   0  0  1  0  0  0  0  0  0  0  0  0
    7.7371    3.4007   -5.7631 C   0  0  0  0  0  0  0  0  0  0  0  0
    6.5782    5.2064   -4.2748 C   0  0  0  0  0  0  0  0  0  0  0  0
    6.8260    6.1865   -3.3747 F   0  0  0  0  0  0  0  0  0  0  0  0
    6.1266    5.8177   -5.3938 F   0  0  0  0  0  0  0  0  0  0  0  0
    5.5702    4.4520   -3.7906 F   0  0  0  0  0  0  0  0  0  0  0  0
    6.2856    1.3663   -0.0688 C   0  0  0  0  0  0  0  0  0  0  0  0
    5.9560    2.4320    0.4295 O   0  0  0  0  0  0  0  0  0  0  0  0
    2.0879   -0.0000    1.2123 C   0  0  0  0  0  0  0  0  0  0  0  0
   -2.9255   -0.0378    2.7089 H   0  0  0  0  0  0  0  0  0  0  0  0
   -3.8621   -0.9553    1.4915 H   0  0  0  0  0  0  0  0  0  0  0  0
   -3.9068    0.8276    1.4881 H   0  0  0  0  0  0  0  0  0  0  0  0
   -2.3936   -0.0298   -0.2564 H   0  0  0  0  0  0  0  0  0  0  0  0
   -0.4493   -0.1028   -0.9062 H   0  0  0  0  0  0  0  0  0  0  0  0
    1.5315    0.0107   -2.1536 H   0  0  0  0  0  0  0  0  0  0  0  0
    4.0158    0.0281   -2.1917 H   0  0  0  0  0  0  0  0  0  0  0  0
    4.4847    1.0510    2.7361 H   0  0  0  0  0  0  0  0  0  0  0  0
    4.1303   -0.6606    3.1341 H   0  0  0  0  0  0  0  0  0  0  0  0
    5.8441   -1.4854    1.7430 H   0  0  0  0  0  0  0  0  0  0  0  0
    6.6020    0.0364    2.1954 H   0  0  0  0  0  0  0  0  0  0  0  0
    9.1008    1.6753   -1.7622 H   0  0  0  0  0  0  0  0  0  0  0  0
    8.3500    2.9097   -0.7387 H   0  0  0  0  0  0  0  0  0  0  0  0
    9.6709    4.1018   -1.7850 H   0  0  0  0  0  0  0  0  0  0  0  0
    9.6210    5.3381   -3.0098 H   0  0  0  0  0  0  0  0  0  0  0  0
   10.8725    5.2472   -5.0602 H   0  0  0  0  0  0  0  0  0  0  0  0
   12.8113    4.3617   -6.2092 H   0  0  0  0  0  0  0  0  0  0  0  0
   12.9606    1.0891   -3.4274 H   0  0  0  0  0  0  0  0  0  0  0  0
   10.9742    1.9898   -2.2573 H   0  0  0  0  0  0  0  0  0  0  0  0
    8.6140    5.1296   -4.8295 H   0  0  0  0  0  0  0  0  0  0  0  0
    6.9934    2.6248   -5.5549 H   0  0  0  0  0  0  0  0  0  0  0  0
    8.7014    2.9176   -5.9500 H   0  0  0  0  0  0  0  0  0  0  0  0
    7.4367    3.9368   -6.6687 H   0  0  0  0  0  0  0  0  0  0  0  0
    1.5498    0.0051    2.1541 H   0  0  0  0  0  0  0  0  0  0  0  0
  1  2  1  0
  2  3  1  0
  3  4  2  0
  3  5  1  0
  5  6  1  0
  6  7  2  0
  7  8  1  0
  8  9  2  0
  9 10  1  0
 10 11  1  0
 11 12  1  0
 13 12  1  0
 13 14  1  6
 14 15  1  0
 15 16  2  0
 15 17  1  0
 17 18  1  0
 18 19  1  0
 19 20  2  0
 19 21  1  0
 21 22  1  0
 22 23  1  0
 23 24  2  0
 24 25  1  0
 25 26  2  0
 26 27  1  0
 26 28  1  0
 28 29  2  0
 21 30  1  0
 30 31  1  0
 30 32  1  0
 32 33  1  0
 32 34  1  0
 32 35  1  0
 17 36  1  0
 36 37  2  0
 10 38  2  0
 38  6  1  0
 13  9  1  0
 36 13  1  0
 29 23  1  0
  1 39  1  0
  1 40  1  0
  1 41  1  0
  2 42  1  0
  5 43  1  0
  7 44  1  0
  8 45  1  0
 11 46  1  0
 11 47  1  0
 12 48  1  0
 12 49  1  0
 18 50  1  0
 18 51  1  0
 22 52  1  0
 22 53  1  0
 24 54  1  0
 25 55  1  0
 28 56  1  0
 29 57  1  0
 30 58  1  6
 31 59  1  0
 31 60  1  0
 31 61  1  0
 38 62  1  0
M  END
>  <_MoleculeID>  (88) 
smi10

>  <_InputIndex>  (88) 
10

>  <_InputSMILES>  (88) 
CNC(=O)Nc1ccc2c(CC[C@@]22OC(=O)N(CC(=O)N(Cc3ccc(F)cc3)[C@@H](C)C(F)(F)F)C2=O)c1

>  <_InputInChIKey>  (88) 
VRVJKILQRBSEAG-LFPIHBKWSA-N

>  <_SMILES>  (88) 
CNC(=O)Nc1ccc2c(c1)CC[C@@]21OC(=O)N(CC(=O)N(Cc2ccc(F)cc2)[C@@H](C)C(F)(F)F)C1=O

>  <_InChIKey>  (88) 
VRVJKILQRBSEAG-LFPIHBKWSA-N

$$$$
smi10_conf1
     RDKit          3D

 62 65  0  0  0  0  0  0  0  0999 V2000
   -3.2816   -0.0484    1.6766 C   0  0  0  0  0  0  0  0  0  0  0  0
   -2.1746   -0.0225    0.7349 N   0  0  0  0  0  0  0  0  0  0  0  0
   -0.8318    0.0000    1.1232 C   0  0  0  0  0  0  0  0  0  0  0  0
   -0.4646    0.0000    2.2963 O   0  0  0  0  0  0  0  0  0  0  0  0
    0.0000    0.0000    0.0000 N   0  0  0  0  0  0  0  0  0  0  0  0
    1.3950    0.0000    0.0000 C   0  0  0  0  0  0  0  0  0  0  0  0
    2.0882    0.0065   -1.2204 C   0  0  0  0  0  0  0  0  0  0  0  0
    3.4843    0.0138   -1.2462 C   0  0  0  0  0  0  0  0  0  0  0  0
    4.1657    0.0059   -0.0392 C   0  0  0  0  0  0  0  0  0  0  0  0
    3.4723   -0.0047    1.1781 C   0  0  0  0  0  0  0  0  0  0  0  0
    4.4174    0.0330    2.3387 C   0  0  0  0  0  0  0  0  0  0  0  0
    5.7381   -0.3934    1.6761 C   0  0  0  0  0  0  0  0  0  0  0  0
    5.6441    0.0332    0.2014 C   0  0  1  0  0  0  0  0  0  0  0  0
    6.3622   -0.8745   -0.6353 O   0  0  0  0  0  0  0  0  0  0  0  0
    7.3389   -0.1941   -1.3126 C   0  0  0  0  0  0  0  0  0  0  0  0
    8.1080   -0.7377   -2.0937 O   0  0  0  0  0  0  0  0  0  0  0  0
    7.2863    1.1248   -0.9729 N   0  0  0  0  0  0  0  0  0  0  0  0
    8.1499    2.1466   -1.4945 C   0  0  0  0  0  0  0  0  0  0  0  0
    9.3990    2.3024   -0.6364 C   0  0  0  0  0  0  0  0  0  0  0  0
    9.5786    1.6044    0.3657 O   0  0  0  0  0  0  0  0  0  0  0  0
   10.3099    3.2875   -1.0481 N   0  0  0  0  0  0  0  0  0  0  0  0
   10.1498    4.1254   -2.2032 C   0  0  0  0  0  0  0  0  0  0  0  0
    9.6466    5.4956   -1.9251 C   0  0  0  0  0  0  0  0  0  0  0  0
   10.5366    6.5410   -1.6661 C   0  0  0  0  0  0  0  0  0  0  0  0
   10.0695    7.8374   -1.4037 C   0  0  0  0  0  0  0  0  0  0  0  0
    8.6996    8.1422   -1.3861 C   0  0  0  0  0  0  0  0  0  0  0  0
    8.2454    9.3798   -1.1354 F   0  0  0  0  0  0  0  0  0  0  0  0
    7.8319    7.0618   -1.6369 C   0  0  0  0  0  0  0  0  0  0  0  0
    8.2776    5.7590   -1.8985 C   0  0  0  0  0  0  0  0  0  0  0  0
   11.4942    3.4998   -0.2643 C   0  0  1  0  0  0  0  0  0  0  0  0
   11.2025    4.0156    1.1800 C   0  0  0  0  0  0  0  0  0  0  0  0
   12.4183    2.2773   -0.3427 C   0  0  0  0  0  0  0  0  0  0  0  0
   12.7955    2.0365   -1.6202 F   0  0  0  0  0  0  0  0  0  0  0  0
   13.5553    2.4769    0.3624 F   0  0  0  0  0  0  0  0  0  0  0  0
   11.8398    1.1546    0.1313 F   0  0  0  0  0  0  0  0  0  0  0  0
    6.2856    1.3663   -0.0688 C   0  0  0  0  0  0  0  0  0  0  0  0
    5.9560    2.4320    0.4295 O   0  0  0  0  0  0  0  0  0  0  0  0
    2.0879    0.0000    1.2123 C   0  0  0  0  0  0  0  0  0  0  0  0
   -2.9255   -0.0378    2.7089 H   0  0  0  0  0  0  0  0  0  0  0  0
   -3.8621   -0.9553    1.4915 H   0  0  0  0  0  0  0  0  0  0  0  0
   -3.9068    0.8276    1.4881 H   0  0  0  0  0  0  0  0  0  0  0  0
   -2.3936   -0.0298   -0.2564 H   0  0  0  0  0  0  0  0  0  0  0  0
   -0.4493   -0.1028   -0.9062 H   0  0  0  0  0  0  0  0  0  0  0  0
    1.5315    0.0107   -2.1536 H   0  0  0  0  0  0  0  0  0  0  0  0
    4.0158    0.0281   -2.1917 H   0  0  0  0  0  0  0  0  0  0  0  0
    4.4847    1.0510    2.7361 H   0  0  0  0  0  0  0  0  0  0  0  0
    4.1303   -0.6606    3.1341 H   0  0  0  0  0  0  0  0  0  0  0  0
    5.8441   -1.4854    1.7430 H   0  0  0  0  0  0  0  0  0  0  0  0
    6.6020    0.0364    2.1954 H   0  0  0  0  0  0  0  0  0  0  0  0
    7.6006    3.0929   -1.4692 H   0  0  0  0  0  0  0  0  0  0  0  0
    8.4176    1.9368   -2.5327 H   0  0  0  0  0  0  0  0  0  0  0  0
    9.5298    3.6234   -2.9558 H   0  0  0  0  0  0  0  0  0  0  0  0
   11.1369    4.2295   -2.6714 H   0  0  0  0  0  0  0  0  0  0  0  0
   11.6089    6.3594   -1.6617 H   0  0  0  0  0  0  0  0  0  0  0  0
   10.8168    8.6017   -1.2053 H   0  0  0  0  0  0  0  0  0  0  0  0
    6.7590    7.2500   -1.6267 H   0  0  0  0  0  0  0  0  0  0  0  0
    7.5681    4.9564   -2.0858 H   0  0  0  0  0  0  0  0  0  0  0  0
   12.0320    4.3055   -0.7841 H   0  0  0  0  0  0  0  0  0  0  0  0
   10.6531    3.2616    1.7528 H   0  0  0  0  0  0  0  0  0  0  0  0
   10.6040    4.9315    1.1460 H   0  0  0  0  0  0  0  0  0  0  0  0
   12.1401    4.2334    1.7008 H   0  0  0  0  0  0  0  0  0  0  0  0
    1.5498    0.0051    2.1541 H   0  0  0  0  0  0  0  0  0  0  0  0
  1  2  1  0
  2  3  1  0
  3  4  2  0
  3  5  1  0
  5  6  1  0
  6  7  2  0
  7  8  1  0
  8  9  2  0
  9 10  1  0
 10 11  1  0
 11 12  1  0
 13 12  1  0
 13 14  1  6
 14 15  1  0
 15 16  2  0
 15 17  1  0
 17 18  1  0
 18 19  1  0
 19 20  2  0
 19 21  1  0
 21 22  1  0
 22 23  1  0
 23 24  2  0
 24 25  1  0
 25 26  2  0
 26 27  1  0
 26 28  1  0
 28 29  2  0
 21 30  1  0
 30 31  1  0
 30 32  1  0
 32 33  1  0
 32 34  1  0
 32 35  1  0
 17 36  1  0
 36 37  2  0
 10 38  2  0
 38  6  1  0
 13  9  1  0
 36 13  1  0
 29 23  1  0
  1 39  1  0
  1 40  1  0
  1 41  1  0
  2 42  1  0
  5 43  1  0
  7 44  1  0
  8 45  1  0
 11 46  1  0
 11 47  1  0
 12 48  1  0
 12 49  1  0
 18 50  1  0
 18 51  1  0
 22 52  1  0
 22 53  1  0
 24 54  1  0
 25 55  1  0
 28 56  1  0
 29 57  1  0
 30 58  1  6
 31 59  1  0
 31 60  1  0
 31 61  1  0
 38 62  1  0
M  END
>  <_MoleculeID>  (89) 
smi10

>  <_InputIndex>  (89) 
10

>  <_InputSMILES>  (89) 
CNC(=O)Nc1ccc2c(CC[C@@]22OC(=O)N(CC(=O)N(Cc3ccc(F)cc3)[C@@H](C)C(F)(F)F)C2=O)c1

>  <_InputInChIKey>  (89) 
VRVJKILQRBSEAG-LFPIHBKWSA-N

>  <_SMILES>  (89) 
CNC(=O)Nc1ccc2c(c1)CC[C@@]21OC(=O)N(CC(=O)N(Cc2ccc(F)cc2)[C@@H](C)C(F)(F)F)C1=O

>  <_InChIKey>  (89) 
VRVJKILQRBSEAG-LFPIHBKWSA-N

$$$$
smi10_conf2
     RDKit          3D

 62 65  0  0  0  0  0  0  0  0999 V2000
   -3.2816   -0.0484    1.6766 C   0  0  0  0  0  0  0  0  0  0  0  0
   -2.1746   -0.0225    0.7349 N   0  0  0  0  0  0  0  0  0  0  0  0
   -0.8318    0.0000    1.1232 C   0  0  0  0  0  0  0  0  0  0  0  0
   -0.4646    0.0000    2.2963 O   0  0  0  0  0  0  0  0  0  0  0  0
    0.0000    0.0000    0.0000 N   0  0  0  0  0  0  0  0  0  0  0  0
    1.3950   -0.0000    0.0000 C   0  0  0  0  0  0  0  0  0  0  0  0
    2.0882    0.0065   -1.2204 C   0  0  0  0  0  0  0  0  0  0  0  0
    3.4843    0.0138   -1.2462 C   0  0  0  0  0  0  0  0  0  0  0  0
    4.1657    0.0059   -0.0392 C   0  0  0  0  0  0  0  0  0  0  0  0
    3.4723   -0.0047    1.1781 C   0  0  0  0  0  0  0  0  0  0  0  0
    4.4174    0.0330    2.3387 C   0  0  0  0  0  0  0  0  0  0  0  0
    5.7381   -0.3934    1.6761 C   0  0  0  0  0  0  0  0  0  0  0  0
    5.6441    0.0332    0.2014 C   0  0  1  0  0  0  0  0  0  0  0  0
    6.3622   -0.8745   -0.6353 O   0  0  0  0  0  0  0  0  0  0  0  0
    7.3389   -0.1941   -1.3126 C   0  0  0  0  0  0  0  0  0  0  0  0
    8.1080   -0.7377   -2.0937 O   0  0  0  0  0  0  0  0  0  0  0  0
    7.2863    1.1248   -0.9729 N   0  0  0  0  0  0  0  0  0  0  0  0
    8.1499    2.1466   -1.4945 C   0  0  0  0  0  0  0  0  0  0  0  0
    7.5630    2.7741   -2.7524 C   0  0  0  0  0  0  0  0  0  0  0  0
    6.4781    2.4011   -3.2078 O   0  0  0  0  0  0  0  0  0  0  0  0
    8.3341    3.7792   -3.3565 N   0  0  0  0  0  0  0  0  0  0  0  0
    9.6003    4.2498   -2.8693 C   0  0  0  0  0  0  0  0  0  0  0  0
    9.5493    5.5223   -2.1035 C   0  0  0  0  0  0  0  0  0  0  0  0
    9.3634    5.5119   -0.7188 C   0  0  0  0  0  0  0  0  0  0  0  0
    9.3151    6.7087    0.0112 C   0  0  0  0  0  0  0  0  0  0  0  0
    9.4471    7.9609   -0.6087 C   0  0  0  0  0  0  0  0  0  0  0  0
    9.4015    9.1099    0.0831 F   0  0  0  0  0  0  0  0  0  0  0  0
    9.6186    7.9337   -2.0062 C   0  0  0  0  0  0  0  0  0  0  0  0
    9.6668    6.7497   -2.7547 C   0  0  0  0  0  0  0  0  0  0  0  0
    7.8460    4.3904   -4.5607 C   0  0  1  0  0  0  0  0  0  0  0  0
    7.7371    3.4007   -5.7631 C   0  0  0  0  0  0  0  0  0  0  0  0
    6.5782    5.2064   -4.2748 C   0  0  0  0  0  0  0  0  0  0  0  0
    6.8260    6.1865   -3.3747 F   0  0  0  0  0  0  0  0  0  0  0  0
    6.1266    5.8177   -5.3938 F   0  0  0  0  0  0  0  0  0  0  0  0
    5.5702    4.4520   -3.7906 F   0  0  0  0  0  0  0  0  0  0  0  0
    6.2856    1.3663   -0.0688 C   0  0  0  0  0  0  0  0  0  0  0  0
    5.9560    2.4320    0.4295 O   0  0  0  0  0  0  0  0  0  0  0  0
    2.0879   -0.0000    1.2123 C   0  0  0  0  0  0  0  0  0  0  0  0
   -2.9255   -0.0378    2.7089 H   0  0  0  0  0  0  0  0  0  0  0  0
   -3.8621   -0.9553    1.4915 H   0  0  0  0  0  0  0  0  0  0  0  0
   -3.9068    0.8276    1.4881 H   0  0  0  0  0  0  0  0  0  0  0  0
   -2.3936   -0.0298   -0.2564 H   0  0  0  0  0  0  0  0  0  0  0  0
   -0.4493   -0.1028   -0.9062 H   0  0  0  0  0  0  0  0  0  0  0  0
    1.5315    0.0107   -2.1536 H   0  0  0  0  0  0  0  0  0  0  0  0
    4.0158    0.0281   -2.1917 H   0  0  0  0  0  0  0  0  0  0  0  0
    4.4847    1.0510    2.7361 H   0  0  0  0  0  0  0  0  0  0  0  0
    4.1303   -0.6606    3.1341 H   0  0  0  0  0  0  0  0  0  0  0  0
    5.8441   -1.4854    1.7430 H   0  0  0  0  0  0  0  0  0  0  0  0
    6.6020    0.0364    2.1954 H   0  0  0  0  0  0  0  0  0  0  0  0
    9.1008    1.6753   -1.7622 H   0  0  0  0  0  0  0  0  0  0  0  0
    8.3500    2.9097   -0.7387 H   0  0  0  0  0  0  0  0  0  0  0  0
   10.3254    4.3128   -3.6896 H   0  0  0  0  0  0  0  0  0  0  0  0
    9.9986    3.4801   -2.1960 H   0  0  0  0  0  0  0  0  0  0  0  0
    9.2498    4.5694   -0.1882 H   0  0  0  0  0  0  0  0  0  0  0  0
    9.1626    6.6275    1.0846 H   0  0  0  0  0  0  0  0  0  0  0  0
    9.7186    8.8829   -2.5313 H   0  0  0  0  0  0  0  0  0  0  0  0
    9.8002    6.7797   -3.8336 H   0  0  0  0  0  0  0  0  0  0  0  0
    8.6140    5.1296   -4.8295 H   0  0  0  0  0  0  0  0  0  0  0  0
    6.9934    2.6248   -5.5549 H   0  0  0  0  0  0  0  0  0  0  0  0
    8.7014    2.9176   -5.9500 H   0  0  0  0  0  0  0  0  0  0  0  0
    7.4367    3.9368   -6.6687 H   0  0  0  0  0  0  0  0  0  0  0  0
    1.5498    0.0051    2.1541 H   0  0  0  0  0  0  0  0  0  0  0  0
  1  2  1  0
  2  3  1  0
  3  4  2  0
  3  5  1  0
  5  6  1  0
  6  7  2  0
  7  8  1  0
  8  9  2  0
  9 10  1  0
 10 11  1  0
 11 12  1  0
 13 12  1  0
 13 14  1  6
 14 15  1  0
 15 16  2  0
 15 17  1  0
 17 18  1  0
 18 19  1  0
 19 20  2  0
 19 21  1  0
 21 22  1  0
 22 23  1  0
 23 24  2  0
 24 25  1  0
 25 26  2  0
 26 27  1  0
 26 28  1  0
 28 29  2  0
 21 30  1  0
 30 31  1  0
 30 32  1  0
 32 33  1  0
 32 34  1  0
 32 35  1  0
 17 36  1  0
 36 37  2  0
 10 38  2  0
 38  6  1  0
 13  9  1  0
 36 13  1  0
 29 23  1  0
  1 39  1  0
  1 40  1  0
  1 41  1  0
  2 42  1  0
  5 43  1  0
  7 44  1  0
  8 45  1  0
 11 46  1  0
 11 47  1  0
 12 48  1  0
 12 49  1  0
 18 50  1  0
 18 51  1  0
 22 52  1  0
 22 53  1  0
 24 54  1  0
 25 55  1  0
 28 56  1  0
 29 57  1  0
 30 58  1  6
 31 59  1  0
 31 60  1  0
 31 61  1  0
 38 62  1  0
M  END
>  <_MoleculeID>  (90) 
smi10

>  <_InputIndex>  (90) 
10

>  <_InputSMILES>  (90) 
CNC(=O)Nc1ccc2c(CC[C@@]22OC(=O)N(CC(=O)N(Cc3ccc(F)cc3)[C@@H](C)C(F)(F)F)C2=O)c1

>  <_InputInChIKey>  (90) 
VRVJKILQRBSEAG-LFPIHBKWSA-N

>  <_SMILES>  (90) 
CNC(=O)Nc1ccc2c(c1)CC[C@@]21OC(=O)N(CC(=O)N(Cc2ccc(F)cc2)[C@@H](C)C(F)(F)F)C1=O

>  <_InChIKey>  (90) 
VRVJKILQRBSEAG-LFPIHBKWSA-N

$$$$
smi10_conf3
     RDKit          3D

 62 65  0  0  0  0  0  0  0  0999 V2000
   -3.2816   -0.0484    1.6766 C   0  0  0  0  0  0  0  0  0  0  0  0
   -2.1746   -0.0225    0.7349 N   0  0  0  0  0  0  0  0  0  0  0  0
   -0.8318    0.0000    1.1232 C   0  0  0  0  0  0  0  0  0  0  0  0
   -0.4646    0.0000    2.2963 O   0  0  0  0  0  0  0  0  0  0  0  0
    0.0000    0.0000    0.0000 N   0  0  0  0  0  0  0  0  0  0  0  0
    1.3950    0.0000    0.0000 C   0  0  0  0  0  0  0  0  0  0  0  0
    2.0882    0.0065   -1.2204 C   0  0  0  0  0  0  0  0  0  0  0  0
    3.4843    0.0138   -1.2462 C   0  0  0  0  0  0  0  0  0  0  0  0
    4.1657    0.0059   -0.0392 C   0  0  0  0  0  0  0  0  0  0  0  0
    3.4723   -0.0047    1.1781 C   0  0  0  0  0  0  0  0  0  0  0  0
    4.4174    0.0330    2.3387 C   0  0  0  0  0  0  0  0  0  0  0  0
    5.7381   -0.3934    1.6761 C   0  0  0  0  0  0  0  0  0  0  0  0
    5.6441    0.0332    0.2014 C   0  0  1  0  0  0  0  0  0  0  0  0
    6.3622   -0.8745   -0.6353 O   0  0  0  0  0  0  0  0  0  0  0  0
    7.3389   -0.1941   -1.3126 C   0  0  0  0  0  0  0  0  0  0  0  0
    8.1080   -0.7377   -2.0937 O   0  0  0  0  0  0  0  0  0  0  0  0
    7.2863    1.1248   -0.9729 N   0  0  0  0  0  0  0  0  0  0  0  0
    8.1499    2.1466   -1.4945 C   0  0  0  0  0  0  0  0  0  0  0  0
    9.3990    2.3024   -0.6364 C   0  0  0  0  0  0  0  0  0  0  0  0
    9.5786    1.6044    0.3657 O   0  0  0  0  0  0  0  0  0  0  0  0
   10.3099    3.2875   -1.0481 N   0  0  0  0  0  0  0  0  0  0  0  0
   10.1498    4.1254   -2.2032 C   0  0  0  0  0  0  0  0  0  0  0  0
   10.9185    3.7020   -3.4025 C   0  0  0  0  0  0  0  0  0  0  0  0
   10.3560    2.8270   -4.3352 C   0  0  0  0  0  0  0  0  0  0  0  0
   11.0748    2.4235   -5.4702 C   0  0  0  0  0  0  0  0  0  0  0  0
   12.3810    2.8728   -5.7187 C   0  0  0  0  0  0  0  0  0  0  0  0
   13.0749    2.4907   -6.8020 F   0  0  0  0  0  0  0  0  0  0  0  0
   12.9209    3.7416   -4.7508 C   0  0  0  0  0  0  0  0  0  0  0  0
   12.2211    4.1547   -3.6088 C   0  0  0  0  0  0  0  0  0  0  0  0
   11.4942    3.4998   -0.2643 C   0  0  1  0  0  0  0  0  0  0  0  0
   11.2025    4.0156    1.1800 C   0  0  0  0  0  0  0  0  0  0  0  0
   12.4183    2.2773   -0.3427 C   0  0  0  0  0  0  0  0  0  0  0  0
   12.7955    2.0365   -1.6202 F   0  0  0  0  0  0  0  0  0  0  0  0
   13.5553    2.4769    0.3624 F   0  0  0  0  0  0  0  0  0  0  0  0
   11.8398    1.1546    0.1313 F   0  0  0  0  0  0  0  0  0  0  0  0
    6.2856    1.3663   -0.0688 C   0  0  0  0  0  0  0  0  0  0  0  0
    5.9560    2.4320    0.4295 O   0  0  0  0  0  0  0  0  0  0  0  0
    2.0879    0.0000    1.2123 C   0  0  0  0  0  0  0  0  0  0  0  0
   -2.9255   -0.0378    2.7089 H   0  0  0  0  0  0  0  0  0  0  0  0
   -3.8621   -0.9553    1.4915 H   0  0  0  0  0  0  0  0  0  0  0  0
   -3.9068    0.8276    1.4881 H   0  0  0  0  0  0  0  0  0  0  0  0
   -2.3936   -0.0298   -0.2564 H   0  0  0  0  0  0  0  0  0  0  0  0
   -0.4493   -0.1028   -0.9062 H   0  0  0  0  0  0  0  0  0  0  0  0
    1.5315    0.0107   -2.1536 H   0  0  0  0  0  0  0  0  0  0  0  0
    4.0158    0.0281   -2.1917 H   0  0  0  0  0  0  0  0  0  0  0  0
    4.4847    1.0510    2.7361 H   0  0  0  0  0  0  0  0  0  0  0  0
    4.1303   -0.6606    3.1341 H   0  0  0  0  0  0  0  0  0  0  0  0
    5.8441   -1.4854    1.7430 H   0  0  0  0  0  0  0  0  0  0  0  0
    6.6020    0.0364    2.1954 H   0  0  0  0  0  0  0  0  0  0  0  0
    7.6006    3.0929   -1.4692 H   0  0  0  0  0  0  0  0  0  0  0  0
    8.4176    1.9368   -2.5327 H   0  0  0  0  0  0  0  0  0  0  0  0
   10.3616    5.1708   -1.9487 H   0  0  0  0  0  0  0  0  0  0  0  0
    9.0867    4.1085   -2.4750 H   0  0  0  0  0  0  0  0  0  0  0  0
    9.3489    2.4435   -4.1890 H   0  0  0  0  0  0  0  0  0  0  0  0
   10.5786    1.7371   -6.1517 H   0  0  0  0  0  0  0  0  0  0  0  0
   13.9350    4.1107   -4.8986 H   0  0  0  0  0  0  0  0  0  0  0  0
   12.6812    4.8270   -2.8884 H   0  0  0  0  0  0  0  0  0  0  0  0
   12.0320    4.3055   -0.7841 H   0  0  0  0  0  0  0  0  0  0  0  0
   10.6531    3.2616    1.7528 H   0  0  0  0  0  0  0  0  0  0  0  0
   10.6040    4.9315    1.1460 H   0  0  0  0  0  0  0  0  0  0  0  0
   12.1401    4.2334    1.7008 H   0  0  0  0  0  0  0  0  0  0  0  0
    1.5498    0.0051    2.1541 H   0  0  0  0  0  0  0  0  0  0  0  0
  1  2  1  0
  2  3  1  0
  3  4  2  0
  3  5  1  0
  5  6  1  0
  6  7  2  0
  7  8  1  0
  8  9  2  0
  9 10  1  0
 10 11  1  0
 11 12  1  0
 13 12  1  0
 13 14  1  6
 14 15  1  0
 15 16  2  0
 15 17  1  0
 17 18  1  0
 18 19  1  0
 19 20  2  0
 19 21  1  0
 21 22  1  0
 22 23  1  0
 23 24  2  0
 24 25  1  0
 25 26  2  0
 26 27  1  0
 26 28  1  0
 28 29  2  0
 21 30  1  0
 30 31  1  0
 30 32  1  0
 32 33  1  0
 32 34  1  0
 32 35  1  0
 17 36  1  0
 36 37  2  0
 10 38  2  0
 38  6  1  0
 13  9  1  0
 36 13  1  0
 29 23  1  0
  1 39  1  0
  1 40  1  0
  1 41  1  0
  2 42  1  0
  5 43  1  0
  7 44  1  0
  8 45  1  0
 11 46  1  0
 11 47  1  0
 12 48  1  0
 12 49  1  0
 18 50  1  0
 18 51  1  0
 22 52  1  0
 22 53  1  0
 24 54  1  0
 25 55  1  0
 28 56  1  0
 29 57  1  0
 30 58  1  6
 31 59  1  0
 31 60  1  0
 31 61  1  0
 38 62  1  0
M  END
>  <_MoleculeID>  (91) 
smi10

>  <_InputIndex>  (91) 
10

>  <_InputSMILES>  (91) 
CNC(=O)Nc1ccc2c(CC[C@@]22OC(=O)N(CC(=O)N(Cc3ccc(F)cc3)[C@@H](C)C(F)(F)F)C2=O)c1

>  <_InputInChIKey>  (91) 
VRVJKILQRBSEAG-LFPIHBKWSA-N

>  <_SMILES>  (91) 
CNC(=O)Nc1ccc2c(c1)CC[C@@]21OC(=O)N(CC(=O)N(Cc2ccc(F)cc2)[C@@H](C)C(F)(F)F)C1=O

>  <_InChIKey>  (91) 
VRVJKILQRBSEAG-LFPIHBKWSA-N

$$$$
smi10_conf4
     RDKit          3D

 62 65  0  0  0  0  0  0  0  0999 V2000
   -3.2816   -0.0484    1.6766 C   0  0  0  0  0  0  0  0  0  0  0  0
   -2.1746   -0.0225    0.7349 N   0  0  0  0  0  0  0  0  0  0  0  0
   -0.8318    0.0000    1.1232 C   0  0  0  0  0  0  0  0  0  0  0  0
   -0.4646    0.0000    2.2963 O   0  0  0  0  0  0  0  0  0  0  0  0
    0.0000    0.0000    0.0000 N   0  0  0  0  0  0  0  0  0  0  0  0
    1.3950    0.0000    0.0000 C   0  0  0  0  0  0  0  0  0  0  0  0
    2.0885   -0.0092   -1.2198 C   0  0  0  0  0  0  0  0  0  0  0  0
    3.4847   -0.0177   -1.2451 C   0  0  0  0  0  0  0  0  0  0  0  0
    4.1673   -0.0049   -0.0385 C   0  0  0  0  0  0  0  0  0  0  0  0
    3.4727    0.0040    1.1777 C   0  0  0  0  0  0  0  0  0  0  0  0
    4.4161   -0.0417    2.3386 C   0  0  0  0  0  0  0  0  0  0  0  0
    5.7414    0.3832    1.6815 C   0  0  0  0  0  0  0  0  0  0  0  0
    5.6454   -0.0382    0.2053 C   0  0  1  0  0  0  0  0  0  0  0  0
    6.1622   -1.3578    0.0177 O   0  0  0  0  0  0  0  0  0  0  0  0
    7.2077   -1.3092   -0.8653 C   0  0  0  0  0  0  0  0  0  0  0  0
    7.8459   -2.2985   -1.1994 O   0  0  0  0  0  0  0  0  0  0  0  0
    7.3857   -0.0231   -1.2839 N   0  0  0  0  0  0  0  0  0  0  0  0
    8.3875    0.3817   -2.2298 C   0  0  0  0  0  0  0  0  0  0  0  0
    9.6870    0.7563   -1.5286 C   0  0  0  0  0  0  0  0  0  0  0  0
    9.7926    0.6953   -0.3004 O   0  0  0  0  0  0  0  0  0  0  0  0
   10.7346    1.1822   -2.3600 N   0  0  0  0  0  0  0  0  0  0  0  0
   10.6649    1.2716   -3.7915 C   0  0  0  0  0  0  0  0  0  0  0  0
   10.4255    2.6363   -4.3285 C   0  0  0  0  0  0  0  0  0  0  0  0
   11.4976    3.4795   -4.6314 C   0  0  0  0  0  0  0  0  0  0  0  0
   11.2798    4.7687   -5.1396 C   0  0  0  0  0  0  0  0  0  0  0  0
    9.9877    5.2688   -5.3629 C   0  0  0  0  0  0  0  0  0  0  0  0
    9.7717    6.5012   -5.8484 F   0  0  0  0  0  0  0  0  0  0  0  0
    8.9317    4.3974   -5.0330 C   0  0  0  0  0  0  0  0  0  0  0  0
    9.1274    3.1072   -4.5218 C   0  0  0  0  0  0  0  0  0  0  0  0
   11.9766    1.5744   -1.7552 C   0  0  1  0  0  0  0  0  0  0  0  0
   11.8550    2.8330   -0.8398 C   0  0  0  0  0  0  0  0  0  0  0  0
   12.6660    0.3656   -1.1085 C   0  0  0  0  0  0  0  0  0  0  0  0
   12.9286   -0.5917   -2.0288 F   0  0  0  0  0  0  0  0  0  0  0  0
   13.8553    0.7128   -0.5655 F   0  0  0  0  0  0  0  0  0  0  0  0
   11.9244   -0.1979   -0.1328 F   0  0  0  0  0  0  0  0  0  0  0  0
    6.4730    0.8202   -0.7070 C   0  0  0  0  0  0  0  0  0  0  0  0
    6.3278    2.0206   -0.8812 O   0  0  0  0  0  0  0  0  0  0  0  0
    2.0880   -0.0000    1.2119 C   0  0  0  0  0  0  0  0  0  0  0  0
   -2.9255   -0.0378    2.7089 H   0  0  0  0  0  0  0  0  0  0  0  0
   -3.8621   -0.9553    1.4915 H   0  0  0  0  0  0  0  0  0  0  0  0
   -3.9068    0.8276    1.4881 H   0  0  0  0  0  0  0  0  0  0  0  0
   -2.3936   -0.0298   -0.2564 H   0  0  0  0  0  0  0  0  0  0  0  0
   -0.4493   -0.1028   -0.9062 H   0  0  0  0  0  0  0  0  0  0  0  0
    1.5322   -0.0156   -2.1534 H   0  0  0  0  0  0  0  0  0  0  0  0
    4.0147   -0.0363   -2.1915 H   0  0  0  0  0  0  0  0  0  0  0  0
    4.1297    0.6477    3.1377 H   0  0  0  0  0  0  0  0  0  0  0  0
    4.4801   -1.0623    2.7301 H   0  0  0  0  0  0  0  0  0  0  0  0
    6.5960   -0.0665    2.1988 H   0  0  0  0  0  0  0  0  0  0  0  0
    5.8417    1.4741    1.7652 H   0  0  0  0  0  0  0  0  0  0  0  0
    8.0152    1.2690   -2.7512 H   0  0  0  0  0  0  0  0  0  0  0  0
    8.5603   -0.4010   -2.9721 H   0  0  0  0  0  0  0  0  0  0  0  0
    9.9284    0.5596   -4.1829 H   0  0  0  0  0  0  0  0  0  0  0  0
   11.6295    0.9300   -4.1880 H   0  0  0  0  0  0  0  0  0  0  0  0
   12.5201    3.1447   -4.4723 H   0  0  0  0  0  0  0  0  0  0  0  0
   12.1591    5.3731   -5.3483 H   0  0  0  0  0  0  0  0  0  0  0  0
    7.9106    4.7457   -5.1835 H   0  0  0  0  0  0  0  0  0  0  0  0
    8.2791    2.4707   -4.2809 H   0  0  0  0  0  0  0  0  0  0  0  0
   12.6201    1.8597   -2.5996 H   0  0  0  0  0  0  0  0  0  0  0  0
   11.2118    2.6209    0.0203 H   0  0  0  0  0  0  0  0  0  0  0  0
   11.4259    3.6719   -1.3971 H   0  0  0  0  0  0  0  0  0  0  0  0
   12.8418    3.1302   -0.4716 H   0  0  0  0  0  0  0  0  0  0  0  0
    1.5503   -0.0062    2.1539 H   0  0  0  0  0  0  0  0  0  0  0  0
  1  2  1  0
  2  3  1  0
  3  4  2  0
  3  5  1  0
  5  6  1  0
  6  7  2  0
  7  8  1  0
  8  9  2  0
  9 10  1  0
 10 11  1  0
 11 12  1  0
 13 12  1  0
 13 14  1  1
 14 15  1  0
 15 16  2  0
 15 17  1  0
 17 18  1  0
 18 19  1  0
 19 20  2  0
 19 21  1  0
 21 22  1  0
 22 23  1  0
 23 24  2  0
 24 25  1  0
 25 26  2  0
 26 27  1  0
 26 28  1  0
 28 29  2  0
 21 30  1  0
 30 31  1  0
 30 32  1  0
 32 33  1  0
 32 34  1  0
 32 35  1  0
 17 36  1  0
 36 37  2  0
 10 38  2  0
 38  6  1  0
 13  9  1  0
 36 13  1  0
 29 23  1  0
  1 39  1  0
  1 40  1  0
  1 41  1  0
  2 42  1  0
  5 43  1  0
  7 44  1  0
  8 45  1  0
 11 46  1  0
 11 47  1  0
 12 48  1  0
 12 49  1  0
 18 50  1  0
 18 51  1  0
 22 52  1  0
 22 53  1  0
 24 54  1  0
 25 55  1  0
 28 56  1  0
 29 57  1  0
 30 58  1  6
 31 59  1  0
 31 60  1  0
 31 61  1  0
 38 62  1  0
M  END
>  <_MoleculeID>  (92) 
smi10

>  <_InputIndex>  (92) 
10

>  <_InputSMILES>  (92) 
CNC(=O)Nc1ccc2c(CC[C@@]22OC(=O)N(CC(=O)N(Cc3ccc(F)cc3)[C@@H](C)C(F)(F)F)C2=O)c1

>  <_InputInChIKey>  (92) 
VRVJKILQRBSEAG-LFPIHBKWSA-N

>  <_SMILES>  (92) 
CNC(=O)Nc1ccc2c(c1)CC[C@@]21OC(=O)N(CC(=O)N(Cc2ccc(F)cc2)[C@@H](C)C(F)(F)F)C1=O

>  <_InChIKey>  (92) 
VRVJKILQRBSEAG-LFPIHBKWSA-N

$$$$
smi10_conf5
     RDKit          3D

 62 65  0  0  0  0  0  0  0  0999 V2000
   -3.2816   -0.0484    1.6766 C   0  0  0  0  0  0  0  0  0  0  0  0
   -2.1746   -0.0225    0.7349 N   0  0  0  0  0  0  0  0  0  0  0  0
   -0.8318    0.0000    1.1232 C   0  0  0  0  0  0  0  0  0  0  0  0
   -0.4646    0.0000    2.2963 O   0  0  0  0  0  0  0  0  0  0  0  0
    0.0000    0.0000    0.0000 N   0  0  0  0  0  0  0  0  0  0  0  0
    1.3950   -0.0000    0.0000 C   0  0  0  0  0  0  0  0  0  0  0  0
    2.0885    0.0092    1.2198 C   0  0  0  0  0  0  0  0  0  0  0  0
    3.4847    0.0177    1.2451 C   0  0  0  0  0  0  0  0  0  0  0  0
    4.1673    0.0049    0.0385 C   0  0  0  0  0  0  0  0  0  0  0  0
    3.4727   -0.0040   -1.1777 C   0  0  0  0  0  0  0  0  0  0  0  0
    4.4161    0.0417   -2.3386 C   0  0  0  0  0  0  0  0  0  0  0  0
    5.7414   -0.3832   -1.6815 C   0  0  0  0  0  0  0  0  0  0  0  0
    5.6454    0.0382   -0.2053 C   0  0  1  0  0  0  0  0  0  0  0  0
    6.1622    1.3578   -0.0177 O   0  0  0  0  0  0  0  0  0  0  0  0
    7.2077    1.3092    0.8653 C   0  0  0  0  0  0  0  0  0  0  0  0
    7.8459    2.2985    1.1994 O   0  0  0  0  0  0  0  0  0  0  0  0
    7.3857    0.0231    1.2839 N   0  0  0  0  0  0  0  0  0  0  0  0
    8.3875   -0.3817    2.2298 C   0  0  0  0  0  0  0  0  0  0  0  0
    7.8560   -0.3173    3.6559 C   0  0  0  0  0  0  0  0  0  0  0  0
    6.7004    0.0460    3.8929 O   0  0  0  0  0  0  0  0  0  0  0  0
    8.7597   -0.6798    4.6668 N   0  0  0  0  0  0  0  0  0  0  0  0
   10.1123   -1.1087    4.4465 C   0  0  0  0  0  0  0  0  0  0  0  0
   11.1490   -0.0661    4.6622 C   0  0  0  0  0  0  0  0  0  0  0  0
   11.7304    0.1089    5.9205 C   0  0  0  0  0  0  0  0  0  0  0  0
   12.7103    1.0902    6.1318 C   0  0  0  0  0  0  0  0  0  0  0  0
   13.1466    1.9361    5.1004 C   0  0  0  0  0  0  0  0  0  0  0  0
   14.0832    2.8773    5.2952 F   0  0  0  0  0  0  0  0  0  0  0  0
   12.5288    1.7410    3.8500 C   0  0  0  0  0  0  0  0  0  0  0  0
   11.5462    0.7687    3.6184 C   0  0  0  0  0  0  0  0  0  0  0  0
    8.3252   -0.6138    6.0339 C   0  0  1  0  0  0  0  0  0  0  0  0
    7.9821    0.8325    6.5106 C   0  0  0  0  0  0  0  0  0  0  0  0
    7.2371   -1.6616    6.3042 C   0  0  0  0  0  0  0  0  0  0  0  0
    7.6994   -2.9118    6.0683 F   0  0  0  0  0  0  0  0  0  0  0  0
    6.8429   -1.6356    7.5979 F   0  0  0  0  0  0  0  0  0  0  0  0
    6.1384   -1.4815    5.5425 F   0  0  0  0  0  0  0  0  0  0  0  0
    6.4730   -0.8202    0.7070 C   0  0  0  0  0  0  0  0  0  0  0  0
    6.3278   -2.0206    0.8812 O   0  0  0  0  0  0  0  0  0  0  0  0
    2.0880   -0.0000   -1.2119 C   0  0  0  0  0  0  0  0  0  0  0  0
   -2.9255   -0.0378    2.7089 H   0  0  0  0  0  0  0  0  0  0  0  0
   -3.8621   -0.9553    1.4915 H   0  0  0  0  0  0  0  0  0  0  0  0
   -3.9068    0.8276    1.4881 H   0  0  0  0  0  0  0  0  0  0  0  0
   -2.3936   -0.0298   -0.2564 H   0  0  0  0  0  0  0  0  0  0  0  0
   -0.4493   -0.1028   -0.9062 H   0  0  0  0  0  0  0  0  0  0  0  0
    1.5322    0.0156    2.1534 H   0  0  0  0  0  0  0  0  0  0  0  0
    4.0147    0.0363    2.1915 H   0  0  0  0  0  0  0  0  0  0  0  0
    4.1297   -0.6477   -3.1377 H   0  0  0  0  0  0  0  0  0  0  0  0
    4.4801    1.0623   -2.7301 H   0  0  0  0  0  0  0  0  0  0  0  0
    6.5960    0.0665   -2.1988 H   0  0  0  0  0  0  0  0  0  0  0  0
    5.8417   -1.4741   -1.7652 H   0  0  0  0  0  0  0  0  0  0  0  0
    9.2256    0.3175    2.1480 H   0  0  0  0  0  0  0  0  0  0  0  0
    8.7573   -1.3836    1.9997 H   0  0  0  0  0  0  0  0  0  0  0  0
   10.2116   -1.5633    3.4535 H   0  0  0  0  0  0  0  0  0  0  0  0
   10.3168   -1.9227    5.1537 H   0  0  0  0  0  0  0  0  0  0  0  0
   11.4253   -0.5157    6.7569 H   0  0  0  0  0  0  0  0  0  0  0  0
   13.1164    1.1752    7.1367 H   0  0  0  0  0  0  0  0  0  0  0  0
   12.8312    2.3797    3.0211 H   0  0  0  0  0  0  0  0  0  0  0  0
   11.0971    0.6564    2.6343 H   0  0  0  0  0  0  0  0  0  0  0  0
    9.1963   -0.9405    6.6195 H   0  0  0  0  0  0  0  0  0  0  0  0
    7.1253    1.2265    5.9546 H   0  0  0  0  0  0  0  0  0  0  0  0
    8.8356    1.4999    6.3540 H   0  0  0  0  0  0  0  0  0  0  0  0
    7.7344    0.8311    7.5766 H   0  0  0  0  0  0  0  0  0  0  0  0
    1.5503    0.0062   -2.1539 H   0  0  0  0  0  0  0  0  0  0  0  0
  1  2  1  0
  2  3  1  0
  3  4  2  0
  3  5  1  0
  5  6  1  0
  6  7  2  0
  7  8  1  0
  8  9  2  0
  9 10  1  0
 10 11  1  0
 11 12  1  0
 13 12  1  0
 13 14  1  6
 14 15  1  0
 15 16  2  0
 15 17  1  0
 17 18  1  0
 18 19  1  0
 19 20  2  0
 19 21  1  0
 21 22  1  0
 22 23  1  0
 23 24  2  0
 24 25  1  0
 25 26  2  0
 26 27  1  0
 26 28  1  0
 28 29  2  0
 21 30  1  0
 30 31  1  0
 30 32  1  0
 32 33  1  0
 32 34  1  0
 32 35  1  0
 17 36  1  0
 36 37  2  0
 10 38  2  0
 38  6  1  0
 13  9  1  0
 36 13  1  0
 29 23  1  0
  1 39  1  0
  1 40  1  0
  1 41  1  0
  2 42  1  0
  5 43  1  0
  7 44  1  0
  8 45  1  0
 11 46  1  0
 11 47  1  0
 12 48  1  0
 12 49  1  0
 18 50  1  0
 18 51  1  0
 22 52  1  0
 22 53  1  0
 24 54  1  0
 25 55  1  0
 28 56  1  0
 29 57  1  0
 30 58  1  1
 31 59  1  0
 31 60  1  0
 31 61  1  0
 38 62  1  0
M  END
>  <_MoleculeID>  (93) 
smi10

>  <_InputIndex>  (93) 
10

>  <_InputSMILES>  (93) 
CNC(=O)Nc1ccc2c(CC[C@@]22OC(=O)N(CC(=O)N(Cc3ccc(F)cc3)[C@@H](C)C(F)(F)F)C2=O)c1

>  <_InputInChIKey>  (93) 
VRVJKILQRBSEAG-LFPIHBKWSA-N

>  <_SMILES>  (93) 
CNC(=O)Nc1ccc2c(c1)CC[C@@]21OC(=O)N(CC(=O)N(Cc2ccc(F)cc2)[C@@H](C)C(F)(F)F)C1=O

>  <_InChIKey>  (93) 
VRVJKILQRBSEAG-LFPIHBKWSA-N

$$$$
smi10_conf6
     RDKit          3D

 62 65  0  0  0  0  0  0  0  0999 V2000
   -3.2816   -0.0484    1.6766 C   0  0  0  0  0  0  0  0  0  0  0  0
   -2.1746   -0.0225    0.7349 N   0  0  0  0  0  0  0  0  0  0  0  0
   -0.8318    0.0000    1.1232 C   0  0  0  0  0  0  0  0  0  0  0  0
   -0.4646    0.0000    2.2963 O   0  0  0  0  0  0  0  0  0  0  0  0
    0.0000    0.0000    0.0000 N   0  0  0  0  0  0  0  0  0  0  0  0
    1.3950   -0.0000    0.0000 C   0  0  0  0  0  0  0  0  0  0  0  0
    2.0885    0.0092    1.2198 C   0  0  0  0  0  0  0  0  0  0  0  0
    3.4847    0.0177    1.2451 C   0  0  0  0  0  0  0  0  0  0  0  0
    4.1673    0.0049    0.0385 C   0  0  0  0  0  0  0  0  0  0  0  0
    3.4727   -0.0040   -1.1777 C   0  0  0  0  0  0  0  0  0  0  0  0
    4.4161    0.0417   -2.3386 C   0  0  0  0  0  0  0  0  0  0  0  0
    5.7414   -0.3832   -1.6815 C   0  0  0  0  0  0  0  0  0  0  0  0
    5.6454    0.0382   -0.2053 C   0  0  1  0  0  0  0  0  0  0  0  0
    6.1622    1.3578   -0.0177 O   0  0  0  0  0  0  0  0  0  0  0  0
    7.2077    1.3092    0.8653 C   0  0  0  0  0  0  0  0  0  0  0  0
    7.8459    2.2985    1.1994 O   0  0  0  0  0  0  0  0  0  0  0  0
    7.3857    0.0231    1.2839 N   0  0  0  0  0  0  0  0  0  0  0  0
    8.3875   -0.3817    2.2298 C   0  0  0  0  0  0  0  0  0  0  0  0
    9.6870   -0.7563    1.5286 C   0  0  0  0  0  0  0  0  0  0  0  0
    9.7926   -0.6953    0.3004 O   0  0  0  0  0  0  0  0  0  0  0  0
   10.7346   -1.1822    2.3600 N   0  0  0  0  0  0  0  0  0  0  0  0
   10.6649   -1.2716    3.7915 C   0  0  0  0  0  0  0  0  0  0  0  0
   10.4255   -2.6363    4.3285 C   0  0  0  0  0  0  0  0  0  0  0  0
   11.4976   -3.4795    4.6314 C   0  0  0  0  0  0  0  0  0  0  0  0
   11.2798   -4.7687    5.1396 C   0  0  0  0  0  0  0  0  0  0  0  0
    9.9877   -5.2688    5.3629 C   0  0  0  0  0  0  0  0  0  0  0  0
    9.7717   -6.5012    5.8484 F   0  0  0  0  0  0  0  0  0  0  0  0
    8.9317   -4.3974    5.0330 C   0  0  0  0  0  0  0  0  0  0  0  0
    9.1274   -3.1072    4.5218 C   0  0  0  0  0  0  0  0  0  0  0  0
   11.9766   -1.5744    1.7552 C   0  0  1  0  0  0  0  0  0  0  0  0
   11.8550   -2.8330    0.8398 C   0  0  0  0  0  0  0  0  0  0  0  0
   12.6660   -0.3656    1.1085 C   0  0  0  0  0  0  0  0  0  0  0  0
   12.9286    0.5917    2.0288 F   0  0  0  0  0  0  0  0  0  0  0  0
   13.8553   -0.7128    0.5655 F   0  0  0  0  0  0  0  0  0  0  0  0
   11.9244    0.1979    0.1328 F   0  0  0  0  0  0  0  0  0  0  0  0
    6.4730   -0.8202    0.7070 C   0  0  0  0  0  0  0  0  0  0  0  0
    6.3278   -2.0206    0.8812 O   0  0  0  0  0  0  0  0  0  0  0  0
    2.0880   -0.0000   -1.2119 C   0  0  0  0  0  0  0  0  0  0  0  0
   -2.9255   -0.0378    2.7089 H   0  0  0  0  0  0  0  0  0  0  0  0
   -3.8621   -0.9553    1.4915 H   0  0  0  0  0  0  0  0  0  0  0  0
   -3.9068    0.8276    1.4881 H   0  0  0  0  0  0  0  0  0  0  0  0
   -2.3936   -0.0298   -0.2564 H   0  0  0  0  0  0  0  0  0  0  0  0
   -0.4493   -0.1028   -0.9062 H   0  0  0  0  0  0  0  0  0  0  0  0
    1.5322    0.0156    2.1534 H   0  0  0  0  0  0  0  0  0  0  0  0
    4.0147    0.0363    2.1915 H   0  0  0  0  0  0  0  0  0  0  0  0
    4.1297   -0.6477   -3.1377 H   0  0  0  0  0  0  0  0  0  0  0  0
    4.4801    1.0623   -2.7301 H   0  0  0  0  0  0  0  0  0  0  0  0
    6.5960    0.0665   -2.1988 H   0  0  0  0  0  0  0  0  0  0  0  0
    5.8417   -1.4741   -1.7652 H   0  0  0  0  0  0  0  0  0  0  0  0
    8.0152   -1.2690    2.7512 H   0  0  0  0  0  0  0  0  0  0  0  0
    8.5603    0.4010    2.9721 H   0  0  0  0  0  0  0  0  0  0  0  0
    9.9284   -0.5596    4.1829 H   0  0  0  0  0  0  0  0  0  0  0  0
   11.6295   -0.9300    4.1880 H   0  0  0  0  0  0  0  0  0  0  0  0
   12.5201   -3.1447    4.4723 H   0  0  0  0  0  0  0  0  0  0  0  0
   12.1591   -5.3731    5.3483 H   0  0  0  0  0  0  0  0  0  0  0  0
    7.9106   -4.7457    5.1835 H   0  0  0  0  0  0  0  0  0  0  0  0
    8.2791   -2.4707    4.2809 H   0  0  0  0  0  0  0  0  0  0  0  0
   12.6201   -1.8597    2.5996 H   0  0  0  0  0  0  0  0  0  0  0  0
   11.2118   -2.6209   -0.0203 H   0  0  0  0  0  0  0  0  0  0  0  0
   11.4259   -3.6719    1.3971 H   0  0  0  0  0  0  0  0  0  0  0  0
   12.8418   -3.1302    0.4716 H   0  0  0  0  0  0  0  0  0  0  0  0
    1.5503    0.0062   -2.1539 H   0  0  0  0  0  0  0  0  0  0  0  0
  1  2  1  0
  2  3  1  0
  3  4  2  0
  3  5  1  0
  5  6  1  0
  6  7  2  0
  7  8  1  0
  8  9  2  0
  9 10  1  0
 10 11  1  0
 11 12  1  0
 13 12  1  0
 13 14  1  6
 14 15  1  0
 15 16  2  0
 15 17  1  0
 17 18  1  0
 18 19  1  0
 19 20  2  0
 19 21  1  0
 21 22  1  0
 22 23  1  0
 23 24  2  0
 24 25  1  0
 25 26  2  0
 26 27  1  0
 26 28  1  0
 28 29  2  0
 21 30  1  0
 30 31  1  0
 30 32  1  0
 32 33  1  0
 32 34  1  0
 32 35  1  0
 17 36  1  0
 36 37  2  0
 10 38  2  0
 38  6  1  0
 13  9  1  0
 36 13  1  0
 29 23  1  0
  1 39  1  0
  1 40  1  0
  1 41  1  0
  2 42  1  0
  5 43  1  0
  7 44  1  0
  8 45  1  0
 11 46  1  0
 11 47  1  0
 12 48  1  0
 12 49  1  0
 18 50  1  0
 18 51  1  0
 22 52  1  0
 22 53  1  0
 24 54  1  0
 25 55  1  0
 28 56  1  0
 29 57  1  0
 30 58  1  1
 31 59  1  0
 31 60  1  0
 31 61  1  0
 38 62  1  0
M  END
>  <_MoleculeID>  (94) 
smi10

>  <_InputIndex>  (94) 
10

>  <_InputSMILES>  (94) 
CNC(=O)Nc1ccc2c(CC[C@@]22OC(=O)N(CC(=O)N(Cc3ccc(F)cc3)[C@@H](C)C(F)(F)F)C2=O)c1

>  <_InputInChIKey>  (94) 
VRVJKILQRBSEAG-LFPIHBKWSA-N

>  <_SMILES>  (94) 
CNC(=O)Nc1ccc2c(c1)CC[C@@]21OC(=O)N(CC(=O)N(Cc2ccc(F)cc2)[C@@H](C)C(F)(F)F)C1=O

>  <_InChIKey>  (94) 
VRVJKILQRBSEAG-LFPIHBKWSA-N

$$$$
smi10_conf7
     RDKit          3D

 62 65  0  0  0  0  0  0  0  0999 V2000
   -3.2816   -0.0484    1.6766 C   0  0  0  0  0  0  0  0  0  0  0  0
   -2.1746   -0.0225    0.7349 N   0  0  0  0  0  0  0  0  0  0  0  0
   -0.8318    0.0000    1.1232 C   0  0  0  0  0  0  0  0  0  0  0  0
   -0.4646    0.0000    2.2963 O   0  0  0  0  0  0  0  0  0  0  0  0
    0.0000    0.0000    0.0000 N   0  0  0  0  0  0  0  0  0  0  0  0
    1.3950   -0.0000    0.0000 C   0  0  0  0  0  0  0  0  0  0  0  0
    2.0885    0.0092    1.2198 C   0  0  0  0  0  0  0  0  0  0  0  0
    3.4847    0.0177    1.2451 C   0  0  0  0  0  0  0  0  0  0  0  0
    4.1673    0.0049    0.0385 C   0  0  0  0  0  0  0  0  0  0  0  0
    3.4727   -0.0040   -1.1777 C   0  0  0  0  0  0  0  0  0  0  0  0
    4.4161    0.0417   -2.3386 C   0  0  0  0  0  0  0  0  0  0  0  0
    5.7414   -0.3832   -1.6815 C   0  0  0  0  0  0  0  0  0  0  0  0
    5.6454    0.0382   -0.2053 C   0  0  1  0  0  0  0  0  0  0  0  0
    6.1622    1.3578   -0.0177 O   0  0  0  0  0  0  0  0  0  0  0  0
    7.2077    1.3092    0.8653 C   0  0  0  0  0  0  0  0  0  0  0  0
    7.8459    2.2985    1.1994 O   0  0  0  0  0  0  0  0  0  0  0  0
    7.3857    0.0231    1.2839 N   0  0  0  0  0  0  0  0  0  0  0  0
    8.3875   -0.3817    2.2298 C   0  0  0  0  0  0  0  0  0  0  0  0
    9.6870   -0.7563    1.5286 C   0  0  0  0  0  0  0  0  0  0  0  0
    9.7926   -0.6953    0.3004 O   0  0  0  0  0  0  0  0  0  0  0  0
   10.7346   -1.1822    2.3600 N   0  0  0  0  0  0  0  0  0  0  0  0
   10.6649   -1.2716    3.7915 C   0  0  0  0  0  0  0  0  0  0  0  0
   11.2843   -0.1382    4.5263 C   0  0  0  0  0  0  0  0  0  0  0  0
   10.5295    0.9881    4.8632 C   0  0  0  0  0  0  0  0  0  0  0  0
   11.1066    2.0616    5.5577 C   0  0  0  0  0  0  0  0  0  0  0  0
   12.4569    2.0565    5.9405 C   0  0  0  0  0  0  0  0  0  0  0  0
   13.0160    3.0799    6.6045 F   0  0  0  0  0  0  0  0  0  0  0  0
   13.1903    0.9122    5.5718 C   0  0  0  0  0  0  0  0  0  0  0  0
   12.6338   -0.1696    4.8758 C   0  0  0  0  0  0  0  0  0  0  0  0
   11.9766   -1.5744    1.7552 C   0  0  1  0  0  0  0  0  0  0  0  0
   11.8550   -2.8330    0.8398 C   0  0  0  0  0  0  0  0  0  0  0  0
   12.6660   -0.3656    1.1085 C   0  0  0  0  0  0  0  0  0  0  0  0
   12.9286    0.5917    2.0288 F   0  0  0  0  0  0  0  0  0  0  0  0
   13.8553   -0.7128    0.5655 F   0  0  0  0  0  0  0  0  0  0  0  0
   11.9244    0.1979    0.1328 F   0  0  0  0  0  0  0  0  0  0  0  0
    6.4730   -0.8202    0.7070 C   0  0  0  0  0  0  0  0  0  0  0  0
    6.3278   -2.0206    0.8812 O   0  0  0  0  0  0  0  0  0  0  0  0
    2.0880   -0.0000   -1.2119 C   0  0  0  0  0  0  0  0  0  0  0  0
   -2.9255   -0.0378    2.7089 H   0  0  0  0  0  0  0  0  0  0  0  0
   -3.8621   -0.9553    1.4915 H   0  0  0  0  0  0  0  0  0  0  0  0
   -3.9068    0.8276    1.4881 H   0  0  0  0  0  0  0  0  0  0  0  0
   -2.3936   -0.0298   -0.2564 H   0  0  0  0  0  0  0  0  0  0  0  0
   -0.4493   -0.1028   -0.9062 H   0  0  0  0  0  0  0  0  0  0  0  0
    1.5322    0.0156    2.1534 H   0  0  0  0  0  0  0  0  0  0  0  0
    4.0147    0.0363    2.1915 H   0  0  0  0  0  0  0  0  0  0  0  0
    4.1297   -0.6477   -3.1377 H   0  0  0  0  0  0  0  0  0  0  0  0
    4.4801    1.0623   -2.7301 H   0  0  0  0  0  0  0  0  0  0  0  0
    6.5960    0.0665   -2.1988 H   0  0  0  0  0  0  0  0  0  0  0  0
    5.8417   -1.4741   -1.7652 H   0  0  0  0  0  0  0  0  0  0  0  0
    8.0152   -1.2690    2.7512 H   0  0  0  0  0  0  0  0  0  0  0  0
    8.5603    0.4010    2.9721 H   0  0  0  0  0  0  0  0  0  0  0  0
   11.0700   -2.2314    4.1341 H   0  0  0  0  0  0  0  0  0  0  0  0
    9.6028   -1.2967    4.0665 H   0  0  0  0  0  0  0  0  0  0  0  0
    9.4795    1.0471    4.5861 H   0  0  0  0  0  0  0  0  0  0  0  0
   10.4629    2.9083    5.7829 H   0  0  0  0  0  0  0  0  0  0  0  0
   14.2445    0.8671    5.8422 H   0  0  0  0  0  0  0  0  0  0  0  0
   13.2415   -1.0321    4.6122 H   0  0  0  0  0  0  0  0  0  0  0  0
   12.6201   -1.8597    2.5996 H   0  0  0  0  0  0  0  0  0  0  0  0
   11.2118   -2.6209   -0.0203 H   0  0  0  0  0  0  0  0  0  0  0  0
   11.4259   -3.6719    1.3971 H   0  0  0  0  0  0  0  0  0  0  0  0
   12.8418   -3.1302    0.4716 H   0  0  0  0  0  0  0  0  0  0  0  0
    1.5503    0.0062   -2.1539 H   0  0  0  0  0  0  0  0  0  0  0  0
  1  2  1  0
  2  3  1  0
  3  4  2  0
  3  5  1  0
  5  6  1  0
  6  7  2  0
  7  8  1  0
  8  9  2  0
  9 10  1  0
 10 11  1  0
 11 12  1  0
 13 12  1  0
 13 14  1  6
 14 15  1  0
 15 16  2  0
 15 17  1  0
 17 18  1  0
 18 19  1  0
 19 20  2  0
 19 21  1  0
 21 22  1  0
 22 23  1  0
 23 24  2  0
 24 25  1  0
 25 26  2  0
 26 27  1  0
 26 28  1  0
 28 29  2  0
 21 30  1  0
 30 31  1  0
 30 32  1  0
 32 33  1  0
 32 34  1  0
 32 35  1  0
 17 36  1  0
 36 37  2  0
 10 38  2  0
 38  6  1  0
 13  9  1  0
 36 13  1  0
 29 23  1  0
  1 39  1  0
  1 40  1  0
  1 41  1  0
  2 42  1  0
  5 43  1  0
  7 44  1  0
  8 45  1  0
 11 46  1  0
 11 47  1  0
 12 48  1  0
 12 49  1  0
 18 50  1  0
 18 51  1  0
 22 52  1  0
 22 53  1  0
 24 54  1  0
 25 55  1  0
 28 56  1  0
 29 57  1  0
 30 58  1  1
 31 59  1  0
 31 60  1  0
 31 61  1  0
 38 62  1  0
M  END
>  <_MoleculeID>  (95) 
smi10

>  <_InputIndex>  (95) 
10

>  <_InputSMILES>  (95) 
CNC(=O)Nc1ccc2c(CC[C@@]22OC(=O)N(CC(=O)N(Cc3ccc(F)cc3)[C@@H](C)C(F)(F)F)C2=O)c1

>  <_InputInChIKey>  (95) 
VRVJKILQRBSEAG-LFPIHBKWSA-N

>  <_SMILES>  (95) 
CNC(=O)Nc1ccc2c(c1)CC[C@@]21OC(=O)N(CC(=O)N(Cc2ccc(F)cc2)[C@@H](C)C(F)(F)F)C1=O

>  <_InChIKey>  (95) 
VRVJKILQRBSEAG-LFPIHBKWSA-N

$$$$
smi10_conf8
     RDKit          3D

 62 65  0  0  0  0  0  0  0  0999 V2000
   -3.2816   -0.0484    1.6766 C   0  0  0  0  0  0  0  0  0  0  0  0
   -2.1746   -0.0225    0.7349 N   0  0  0  0  0  0  0  0  0  0  0  0
   -0.8318    0.0000    1.1232 C   0  0  0  0  0  0  0  0  0  0  0  0
   -0.4646    0.0000    2.2963 O   0  0  0  0  0  0  0  0  0  0  0  0
    0.0000    0.0000    0.0000 N   0  0  0  0  0  0  0  0  0  0  0  0
    1.3950   -0.0000    0.0000 C   0  0  0  0  0  0  0  0  0  0  0  0
    2.0882   -0.0065    1.2204 C   0  0  0  0  0  0  0  0  0  0  0  0
    3.4843   -0.0138    1.2462 C   0  0  0  0  0  0  0  0  0  0  0  0
    4.1657   -0.0059    0.0392 C   0  0  0  0  0  0  0  0  0  0  0  0
    3.4723    0.0047   -1.1781 C   0  0  0  0  0  0  0  0  0  0  0  0
    4.4174   -0.0330   -2.3387 C   0  0  0  0  0  0  0  0  0  0  0  0
    5.7381    0.3934   -1.6761 C   0  0  0  0  0  0  0  0  0  0  0  0
    5.6441   -0.0332   -0.2014 C   0  0  1  0  0  0  0  0  0  0  0  0
    6.3622    0.8745    0.6353 O   0  0  0  0  0  0  0  0  0  0  0  0
    7.3389    0.1941    1.3126 C   0  0  0  0  0  0  0  0  0  0  0  0
    8.1080    0.7377    2.0937 O   0  0  0  0  0  0  0  0  0  0  0  0
    7.2863   -1.1248    0.9729 N   0  0  0  0  0  0  0  0  0  0  0  0
    8.1499   -2.1466    1.4945 C   0  0  0  0  0  0  0  0  0  0  0  0
    7.5630   -2.7741    2.7524 C   0  0  0  0  0  0  0  0  0  0  0  0
    6.4781   -2.4011    3.2078 O   0  0  0  0  0  0  0  0  0  0  0  0
    8.3341   -3.7792    3.3565 N   0  0  0  0  0  0  0  0  0  0  0  0
    9.6003   -4.2498    2.8693 C   0  0  0  0  0  0  0  0  0  0  0  0
   10.7908   -3.6927    3.5625 C   0  0  0  0  0  0  0  0  0  0  0  0
   10.6416   -2.7788    4.6086 C   0  0  0  0  0  0  0  0  0  0  0  0
   11.7604   -2.2492    5.2686 C   0  0  0  0  0  0  0  0  0  0  0  0
   13.0697   -2.6064    4.9110 C   0  0  0  0  0  0  0  0  0  0  0  0
   14.1447   -2.1036    5.5375 F   0  0  0  0  0  0  0  0  0  0  0  0
   13.1824   -3.5181    3.8436 C   0  0  0  0  0  0  0  0  0  0  0  0
   12.0781   -4.0568    3.1693 C   0  0  0  0  0  0  0  0  0  0  0  0
    7.8460   -4.3904    4.5607 C   0  0  1  0  0  0  0  0  0  0  0  0
    7.7371   -3.4007    5.7631 C   0  0  0  0  0  0  0  0  0  0  0  0
    6.5782   -5.2064    4.2748 C   0  0  0  0  0  0  0  0  0  0  0  0
    6.8260   -6.1865    3.3747 F   0  0  0  0  0  0  0  0  0  0  0  0
    6.1266   -5.8177    5.3938 F   0  0  0  0  0  0  0  0  0  0  0  0
    5.5702   -4.4520    3.7906 F   0  0  0  0  0  0  0  0  0  0  0  0
    6.2856   -1.3663    0.0688 C   0  0  0  0  0  0  0  0  0  0  0  0
    5.9560   -2.4320   -0.4295 O   0  0  0  0  0  0  0  0  0  0  0  0
    2.0879   -0.0000   -1.2123 C   0  0  0  0  0  0  0  0  0  0  0  0
   -2.9255   -0.0378    2.7089 H   0  0  0  0  0  0  0  0  0  0  0  0
   -3.8621   -0.9553    1.4915 H   0  0  0  0  0  0  0  0  0  0  0  0
   -3.9068    0.8276    1.4881 H   0  0  0  0  0  0  0  0  0  0  0  0
   -2.3936   -0.0298   -0.2564 H   0  0  0  0  0  0  0  0  0  0  0  0
   -0.4493   -0.1028   -0.9062 H   0  0  0  0  0  0  0  0  0  0  0  0
    1.5315   -0.0107    2.1536 H   0  0  0  0  0  0  0  0  0  0  0  0
    4.0158   -0.0281    2.1917 H   0  0  0  0  0  0  0  0  0  0  0  0
    4.4847   -1.0510   -2.7361 H   0  0  0  0  0  0  0  0  0  0  0  0
    4.1303    0.6606   -3.1341 H   0  0  0  0  0  0  0  0  0  0  0  0
    5.8441    1.4854   -1.7430 H   0  0  0  0  0  0  0  0  0  0  0  0
    6.6020   -0.0364   -2.1954 H   0  0  0  0  0  0  0  0  0  0  0  0
    9.1008   -1.6753    1.7622 H   0  0  0  0  0  0  0  0  0  0  0  0
    8.3500   -2.9097    0.7387 H   0  0  0  0  0  0  0  0  0  0  0  0
    9.6709   -4.1018    1.7850 H   0  0  0  0  0  0  0  0  0  0  0  0
    9.6210   -5.3381    3.0098 H   0  0  0  0  0  0  0  0  0  0  0  0
    9.6495   -2.4629    4.9231 H   0  0  0  0  0  0  0  0  0  0  0  0
   11.5717   -1.5392    6.0700 H   0  0  0  0  0  0  0  0  0  0  0  0
   14.1802   -3.8192    3.5268 H   0  0  0  0  0  0  0  0  0  0  0  0
   12.2159   -4.7578    2.3493 H   0  0  0  0  0  0  0  0  0  0  0  0
    8.6140   -5.1296    4.8295 H   0  0  0  0  0  0  0  0  0  0  0  0
    6.9934   -2.6248    5.5549 H   0  0  0  0  0  0  0  0  0  0  0  0
    8.7014   -2.9176    5.9500 H   0  0  0  0  0  0  0  0  0  0  0  0
    7.4367   -3.9368    6.6687 H   0  0  0  0  0  0  0  0  0  0  0  0
    1.5498   -0.0051   -2.1541 H   0  0  0  0  0  0  0  0  0  0  0  0
  1  2  1  0
  2  3  1  0
  3  4  2  0
  3  5  1  0
  5  6  1  0
  6  7  2  0
  7  8  1  0
  8  9  2  0
  9 10  1  0
 10 11  1  0
 11 12  1  0
 13 12  1  0
 13 14  1  1
 14 15  1  0
 15 16  2  0
 15 17  1  0
 17 18  1  0
 18 19  1  0
 19 20  2  0
 19 21  1  0
 21 22  1  0
 22 23  1  0
 23 24  2  0
 24 25  1  0
 25 26  2  0
 26 27  1  0
 26 28  1  0
 28 29  2  0
 21 30  1  0
 30 31  1  0
 30 32  1  0
 32 33  1  0
 32 34  1  0
 32 35  1  0
 17 36  1  0
 36 37  2  0
 10 38  2  0
 38  6  1  0
 13  9  1  0
 36 13  1  0
 29 23  1  0
  1 39  1  0
  1 40  1  0
  1 41  1  0
  2 42  1  0
  5 43  1  0
  7 44  1  0
  8 45  1  0
 11 46  1  0
 11 47  1  0
 12 48  1  0
 12 49  1  0
 18 50  1  0
 18 51  1  0
 22 52  1  0
 22 53  1  0
 24 54  1  0
 25 55  1  0
 28 56  1  0
 29 57  1  0
 30 58  1  1
 31 59  1  0
 31 60  1  0
 31 61  1  0
 38 62  1  0
M  END
>  <_MoleculeID>  (96) 
smi10

>  <_InputIndex>  (96) 
10

>  <_InputSMILES>  (96) 
CNC(=O)Nc1ccc2c(CC[C@@]22OC(=O)N(CC(=O)N(Cc3ccc(F)cc3)[C@@H](C)C(F)(F)F)C2=O)c1

>  <_InputInChIKey>  (96) 
VRVJKILQRBSEAG-LFPIHBKWSA-N

>  <_SMILES>  (96) 
CNC(=O)Nc1ccc2c(c1)CC[C@@]21OC(=O)N(CC(=O)N(Cc2ccc(F)cc2)[C@@H](C)C(F)(F)F)C1=O

>  <_InChIKey>  (96) 
VRVJKILQRBSEAG-LFPIHBKWSA-N

$$$$
smi10_conf9
     RDKit          3D

 62 65  0  0  0  0  0  0  0  0999 V2000
   -3.2816   -0.0484    1.6766 C   0  0  0  0  0  0  0  0  0  0  0  0
   -2.1746   -0.0225    0.7349 N   0  0  0  0  0  0  0  0  0  0  0  0
   -0.8318    0.0000    1.1232 C   0  0  0  0  0  0  0  0  0  0  0  0
   -0.4646    0.0000    2.2963 O   0  0  0  0  0  0  0  0  0  0  0  0
    0.0000    0.0000    0.0000 N   0  0  0  0  0  0  0  0  0  0  0  0
    1.3950    0.0000    0.0000 C   0  0  0  0  0  0  0  0  0  0  0  0
    2.0885   -0.0092   -1.2198 C   0  0  0  0  0  0  0  0  0  0  0  0
    3.4847   -0.0177   -1.2451 C   0  0  0  0  0  0  0  0  0  0  0  0
    4.1673   -0.0049   -0.0385 C   0  0  0  0  0  0  0  0  0  0  0  0
    3.4727    0.0040    1.1777 C   0  0  0  0  0  0  0  0  0  0  0  0
    4.4161   -0.0417    2.3386 C   0  0  0  0  0  0  0  0  0  0  0  0
    5.7414    0.3832    1.6815 C   0  0  0  0  0  0  0  0  0  0  0  0
    5.6454   -0.0382    0.2053 C   0  0  1  0  0  0  0  0  0  0  0  0
    6.1622   -1.3578    0.0177 O   0  0  0  0  0  0  0  0  0  0  0  0
    7.2077   -1.3092   -0.8653 C   0  0  0  0  0  0  0  0  0  0  0  0
    7.8459   -2.2985   -1.1994 O   0  0  0  0  0  0  0  0  0  0  0  0
    7.3857   -0.0231   -1.2839 N   0  0  0  0  0  0  0  0  0  0  0  0
    8.3875    0.3817   -2.2298 C   0  0  0  0  0  0  0  0  0  0  0  0
    7.8560    0.3173   -3.6559 C   0  0  0  0  0  0  0  0  0  0  0  0
    6.7004   -0.0460   -3.8929 O   0  0  0  0  0  0  0  0  0  0  0  0
    8.7597    0.6798   -4.6668 N   0  0  0  0  0  0  0  0  0  0  0  0
   10.1123    1.1087   -4.4465 C   0  0  0  0  0  0  0  0  0  0  0  0
   11.1490    0.0661   -4.6622 C   0  0  0  0  0  0  0  0  0  0  0  0
   10.7876   -1.2262   -5.0512 C   0  0  0  0  0  0  0  0  0  0  0  0
   11.7603   -2.2155   -5.2577 C   0  0  0  0  0  0  0  0  0  0  0  0
   13.1287   -1.9577   -5.0823 C   0  0  0  0  0  0  0  0  0  0  0  0
   14.0648   -2.8992   -5.2776 F   0  0  0  0  0  0  0  0  0  0  0  0
   13.4549   -0.6493   -4.6762 C   0  0  0  0  0  0  0  0  0  0  0  0
   12.4987    0.3529   -4.4618 C   0  0  0  0  0  0  0  0  0  0  0  0
    8.3252    0.6138   -6.0339 C   0  0  1  0  0  0  0  0  0  0  0  0
    7.9821   -0.8325   -6.5106 C   0  0  0  0  0  0  0  0  0  0  0  0
    7.2371    1.6616   -6.3042 C   0  0  0  0  0  0  0  0  0  0  0  0
    7.6994    2.9118   -6.0683 F   0  0  0  0  0  0  0  0  0  0  0  0
    6.8429    1.6356   -7.5979 F   0  0  0  0  0  0  0  0  0  0  0  0
    6.1384    1.4815   -5.5425 F   0  0  0  0  0  0  0  0  0  0  0  0
    6.4730    0.8202   -0.7070 C   0  0  0  0  0  0  0  0  0  0  0  0
    6.3278    2.0206   -0.8812 O   0  0  0  0  0  0  0  0  0  0  0  0
    2.0880    0.0000    1.2119 C   0  0  0  0  0  0  0  0  0  0  0  0
   -2.9255   -0.0378    2.7089 H   0  0  0  0  0  0  0  0  0  0  0  0
   -3.8621   -0.9553    1.4915 H   0  0  0  0  0  0  0  0  0  0  0  0
   -3.9068    0.8276    1.4881 H   0  0  0  0  0  0  0  0  0  0  0  0
   -2.3936   -0.0298   -0.2564 H   0  0  0  0  0  0  0  0  0  0  0  0
   -0.4493   -0.1028   -0.9062 H   0  0  0  0  0  0  0  0  0  0  0  0
    1.5322   -0.0156   -2.1534 H   0  0  0  0  0  0  0  0  0  0  0  0
    4.0147   -0.0363   -2.1915 H   0  0  0  0  0  0  0  0  0  0  0  0
    4.1297    0.6477    3.1377 H   0  0  0  0  0  0  0  0  0  0  0  0
    4.4801   -1.0623    2.7301 H   0  0  0  0  0  0  0  0  0  0  0  0
    6.5960   -0.0665    2.1988 H   0  0  0  0  0  0  0  0  0  0  0  0
    5.8417    1.4741    1.7652 H   0  0  0  0  0  0  0  0  0  0  0  0
    9.2256   -0.3175   -2.1480 H   0  0  0  0  0  0  0  0  0  0  0  0
    8.7573    1.3836   -1.9997 H   0  0  0  0  0  0  0  0  0  0  0  0
   10.2116    1.5633   -3.4535 H   0  0  0  0  0  0  0  0  0  0  0  0
   10.3168    1.9227   -5.1537 H   0  0  0  0  0  0  0  0  0  0  0  0
    9.7406   -1.4823   -5.1961 H   0  0  0  0  0  0  0  0  0  0  0  0
   11.4087   -3.2006   -5.5543 H   0  0  0  0  0  0  0  0  0  0  0  0
   14.5050   -0.4051   -4.5210 H   0  0  0  0  0  0  0  0  0  0  0  0
   12.7997    1.3495   -4.1474 H   0  0  0  0  0  0  0  0  0  0  0  0
    9.1963    0.9405   -6.6195 H   0  0  0  0  0  0  0  0  0  0  0  0
    7.1253   -1.2265   -5.9546 H   0  0  0  0  0  0  0  0  0  0  0  0
    8.8356   -1.4999   -6.3540 H   0  0  0  0  0  0  0  0  0  0  0  0
    7.7344   -0.8311   -7.5766 H   0  0  0  0  0  0  0  0  0  0  0  0
    1.5503   -0.0062    2.1539 H   0  0  0  0  0  0  0  0  0  0  0  0
  1  2  1  0
  2  3  1  0
  3  4  2  0
  3  5  1  0
  5  6  1  0
  6  7  2  0
  7  8  1  0
  8  9  2  0
  9 10  1  0
 10 11  1  0
 11 12  1  0
 13 12  1  0
 13 14  1  1
 14 15  1  0
 15 16  2  0
 15 17  1  0
 17 18  1  0
 18 19  1  0
 19 20  2  0
 19 21  1  0
 21 22  1  0
 22 23  1  0
 23 24  2  0
 24 25  1  0
 25 26  2  0
 26 27  1  0
 26 28  1  0
 28 29  2  0
 21 30  1  0
 30 31  1  0
 30 32  1  0
 32 33  1  0
 32 34  1  0
 32 35  1  0
 17 36  1  0
 36 37  2  0
 10 38  2  0
 38  6  1  0
 13  9  1  0
 36 13  1  0
 29 23  1  0
  1 39  1  0
  1 40  1  0
  1 41  1  0
  2 42  1  0
  5 43  1  0
  7 44  1  0
  8 45  1  0
 11 46  1  0
 11 47  1  0
 12 48  1  0
 12 49  1  0
 18 50  1  0
 18 51  1  0
 22 52  1  0
 22 53  1  0
 24 54  1  0
 25 55  1  0
 28 56  1  0
 29 57  1  0
 30 58  1  6
 31 59  1  0
 31 60  1  0
 31 61  1  0
 38 62  1  0
M  END
>  <_MoleculeID>  (97) 
smi10

>  <_InputIndex>  (97) 
10

>  <_InputSMILES>  (97) 
CNC(=O)Nc1ccc2c(CC[C@@]22OC(=O)N(CC(=O)N(Cc3ccc(F)cc3)[C@@H](C)C(F)(F)F)C2=O)c1

>  <_InputInChIKey>  (97) 
VRVJKILQRBSEAG-LFPIHBKWSA-N

>  <_SMILES>  (97) 
CNC(=O)Nc1ccc2c(c1)CC[C@@]21OC(=O)N(CC(=O)N(Cc2ccc(F)cc2)[C@@H](C)C(F)(F)F)C1=O

>  <_InChIKey>  (97) 
VRVJKILQRBSEAG-LFPIHBKWSA-N

$$$$
smi11_conf0
     RDKit          3D

 41 44  0  0  0  0  0  0  0  0999 V2000
    9.7505    2.2000    1.9400 C   0  0  0  0  0  0  0  0  0  0  0  0
    9.2951    0.9051    1.4593 N   0  0  0  0  0  0  0  0  0  0  0  0
    8.9887    0.9063    0.0217 C   0  0  0  0  0  0  0  0  0  0  0  0
    7.8766   -0.1307   -0.1532 C   0  0  2  0  0  0  0  0  0  0  0  0
    6.5123    0.4768   -0.5114 C   0  0  0  0  0  0  0  0  0  0  0  0
    5.5527   -0.2420    0.3128 N   0  0  0  0  0  0  0  0  0  0  0  0
    6.1915   -1.0846    1.3100 C   0  0  0  0  0  0  0  0  0  0  0  0
    7.6647   -0.7095    1.2440 C   0  0  2  0  0  0  0  0  0  0  0  0
    8.0943    0.4351    2.1518 C   0  0  0  0  0  0  0  0  0  0  0  0
    4.1671   -0.1330    0.1627 C   0  0  0  0  0  0  0  0  0  0  0  0
    3.5604    0.6774   -0.7943 C   0  0  0  0  0  0  0  0  0  0  0  0
    2.1658    0.7640   -0.9083 C   0  0  0  0  0  0  0  0  0  0  0  0
    1.4360    0.0000    0.0000 C   0  0  0  0  0  0  0  0  0  0  0  0
    2.0285   -0.7800    0.9296 N   0  0  0  0  0  0  0  0  0  0  0  0
    3.3913   -0.8455    1.0047 N   0  0  0  0  0  0  0  0  0  0  0  0
    0.0000    0.0000    0.0000 C   0  0  0  0  0  0  0  0  0  0  0  0
   -0.7111    0.0000    1.2027 C   0  0  0  0  0  0  0  0  0  0  0  0
   -2.1138    0.0010    1.2110 C   0  0  0  0  0  0  0  0  0  0  0  0
   -2.8620   -0.0009    0.0236 C   0  0  0  0  0  0  0  0  0  0  0  0
   -2.1126   -0.0155   -1.1687 C   0  0  0  0  0  0  0  0  0  0  0  0
   -0.7114   -0.0194   -1.1991 C   0  0  0  0  0  0  0  0  0  0  0  0
    9.9995    2.1461    3.0054 H   0  0  0  0  0  0  0  0  0  0  0  0
    8.9963    2.9833    1.8033 H   0  0  0  0  0  0  0  0  0  0  0  0
   10.6619    2.5042    1.4139 H   0  0  0  0  0  0  0  0  0  0  0  0
    8.6777    1.8908   -0.3475 H   0  0  0  0  0  0  0  0  0  0  0  0
    9.8829    0.6095   -0.5371 H   0  0  0  0  0  0  0  0  0  0  0  0
    8.1486   -0.9167   -0.8670 H   0  0  0  0  0  0  0  0  0  0  0  0
    6.3038    0.3439   -1.5789 H   0  0  0  0  0  0  0  0  0  0  0  0
    6.4597    1.5477   -0.2842 H   0  0  0  0  0  0  0  0  0  0  0  0
    5.7742   -0.9287    2.3107 H   0  0  0  0  0  0  0  0  0  0  0  0
    6.0557   -2.1367    1.0341 H   0  0  0  0  0  0  0  0  0  0  0  0
    8.3046   -1.5835    1.4207 H   0  0  0  0  0  0  0  0  0  0  0  0
    7.3246    1.2149    2.2154 H   0  0  0  0  0  0  0  0  0  0  0  0
    8.3188    0.0812    3.1630 H   0  0  0  0  0  0  0  0  0  0  0  0
    4.1838    1.2778   -1.4482 H   0  0  0  0  0  0  0  0  0  0  0  0
    1.6880    1.3948   -1.6459 H   0  0  0  0  0  0  0  0  0  0  0  0
   -0.1814   -0.0042    2.1525 H   0  0  0  0  0  0  0  0  0  0  0  0
   -2.6026   -0.0043    2.1820 H   0  0  0  0  0  0  0  0  0  0  0  0
   -3.9439   -0.0005    0.0237 H   0  0  0  0  0  0  0  0  0  0  0  0
   -2.6514   -0.0242   -2.1154 H   0  0  0  0  0  0  0  0  0  0  0  0
   -0.1765   -0.0317   -2.1459 H   0  0  0  0  0  0  0  0  0  0  0  0
  1  2  1  0
  2  3  1  0
  4  3  1  0
  4  5  1  0
  5  6  1  0
  6  7  1  0
  8  7  1  0
  8  9  1  0
  6 10  1  0
 10 11  2  0
 11 12  1  0
 12 13  2  0
 13 14  1  0
 14 15  2  0
 13 16  1  0
 16 17  2  0
 17 18  1  0
 18 19  2  0
 19 20  1  0
 20 21  2  0
  9  2  1  0
 15 10  1  0
 21 16  1  0
  8  4  1  0
  1 22  1  0
  1 23  1  0
  1 24  1  0
  3 25  1  0
  3 26  1  0
  4 27  1  6
  5 28  1  0
  5 29  1  0
  7 30  1  0
  7 31  1  0
  8 32  1  6
  9 33  1  0
  9 34  1  0
 11 35  1  0
 12 36  1  0
 17 37  1  0
 18 38  1  0
 19 39  1  0
 20 40  1  0
 21 41  1  0
M  END
>  <_MoleculeID>  (98) 
smi11

>  <_InputIndex>  (98) 
11

>  <_InputSMILES>  (98) 
CN1C[C@H]2CN(C[C@H]2C1)c1ccc(nn1)-c1ccccc1

>  <_InputInChIKey>  (98) 
GTMRUYCIJSNXGB-GASCZTMLSA-N

>  <_SMILES>  (98) 
CN1C[C@@H]2CN(c3ccc(-c4ccccc4)nn3)C[C@@H]2C1

>  <_InChIKey>  (98) 
GTMRUYCIJSNXGB-GASCZTMLSA-N

$$$$
smi11_conf1
     RDKit          3D

 41 44  0  0  0  0  0  0  0  0999 V2000
    9.5731    0.9960   -3.2041 C   0  0  0  0  0  0  0  0  0  0  0  0
    9.2307    0.3715   -1.9362 N   0  0  0  0  0  0  0  0  0  0  0  0
    8.2916    1.1706   -1.1477 C   0  0  0  0  0  0  0  0  0  0  0  0
    7.8609    0.1578   -0.0951 C   0  0  1  0  0  0  0  0  0  0  0  0
    6.5116    0.4201    0.5574 C   0  0  0  0  0  0  0  0  0  0  0  0
    5.5527   -0.2660   -0.2926 N   0  0  0  0  0  0  0  0  0  0  0  0
    6.1923   -1.0978   -1.3004 C   0  0  0  0  0  0  0  0  0  0  0  0
    7.6780   -1.1197   -0.9115 C   0  0  1  0  0  0  0  0  0  0  0  0
    8.6305   -0.9604   -2.0990 C   0  0  0  0  0  0  0  0  0  0  0  0
    4.1671   -0.1372   -0.1592 C   0  0  0  0  0  0  0  0  0  0  0  0
    3.5604    0.6646    0.8051 C   0  0  0  0  0  0  0  0  0  0  0  0
    2.1658    0.7619    0.9101 C   0  0  0  0  0  0  0  0  0  0  0  0
    1.4360   -0.0000    0.0000 C   0  0  0  0  0  0  0  0  0  0  0  0
    2.0285   -0.7800   -0.9296 N   0  0  0  0  0  0  0  0  0  0  0  0
    3.3913   -0.8426   -1.0071 N   0  0  0  0  0  0  0  0  0  0  0  0
    0.0000    0.0000    0.0000 C   0  0  0  0  0  0  0  0  0  0  0  0
   -0.7111    0.0000    1.2027 C   0  0  0  0  0  0  0  0  0  0  0  0
   -2.1138    0.0010    1.2110 C   0  0  0  0  0  0  0  0  0  0  0  0
   -2.8620   -0.0009    0.0236 C   0  0  0  0  0  0  0  0  0  0  0  0
   -2.1126   -0.0155   -1.1687 C   0  0  0  0  0  0  0  0  0  0  0  0
   -0.7114   -0.0194   -1.1991 C   0  0  0  0  0  0  0  0  0  0  0  0
    8.6960    1.1481   -3.8433 H   0  0  0  0  0  0  0  0  0  0  0  0
   10.2954    0.3804   -3.7511 H   0  0  0  0  0  0  0  0  0  0  0  0
   10.0464    1.9692   -3.0346 H   0  0  0  0  0  0  0  0  0  0  0  0
    8.7774    2.0394   -0.6922 H   0  0  0  0  0  0  0  0  0  0  0  0
    7.4423    1.5189   -1.7494 H   0  0  0  0  0  0  0  0  0  0  0  0
    8.6510    0.0467    0.6584 H   0  0  0  0  0  0  0  0  0  0  0  0
    6.2981    1.4913    0.6394 H   0  0  0  0  0  0  0  0  0  0  0  0
    6.4842   -0.0201    1.5608 H   0  0  0  0  0  0  0  0  0  0  0  0
    5.7830   -2.1143   -1.3019 H   0  0  0  0  0  0  0  0  0  0  0  0
    6.0274   -0.6620   -2.2924 H   0  0  0  0  0  0  0  0  0  0  0  0
    7.9068   -2.0068   -0.3097 H   0  0  0  0  0  0  0  0  0  0  0  0
    9.4207   -1.7181   -2.0624 H   0  0  0  0  0  0  0  0  0  0  0  0
    8.1023   -1.0774   -3.0526 H   0  0  0  0  0  0  0  0  0  0  0  0
    4.1838    1.2043    1.5099 H   0  0  0  0  0  0  0  0  0  0  0  0
    1.6880    1.3787    1.6594 H   0  0  0  0  0  0  0  0  0  0  0  0
   -0.1814   -0.0042    2.1525 H   0  0  0  0  0  0  0  0  0  0  0  0
   -2.6026   -0.0043    2.1820 H   0  0  0  0  0  0  0  0  0  0  0  0
   -3.9439   -0.0005    0.0237 H   0  0  0  0  0  0  0  0  0  0  0  0
   -2.6514   -0.0242   -2.1154 H   0  0  0  0  0  0  0  0  0  0  0  0
   -0.1765   -0.0317   -2.1459 H   0  0  0  0  0  0  0  0  0  0  0  0
  1  2  1  0
  2  3  1  0
  4  3  1  0
  4  5  1  0
  5  6  1  0
  6  7  1  0
  8  7  1  0
  8  9  1  0
  6 10  1  0
 10 11  2  0
 11 12  1  0
 12 13  2  0
 13 14  1  0
 14 15  2  0
 13 16  1  0
 16 17  2  0
 17 18  1  0
 18 19  2  0
 19 20  1  0
 20 21  2  0
  9  2  1  0
 15 10  1  0
 21 16  1  0
  8  4  1  0
  1 22  1  0
  1 23  1  0
  1 24  1  0
  3 25  1  0
  3 26  1  0
  4 27  1  1
  5 28  1  0
  5 29  1  0
  7 30  1  0
  7 31  1  0
  8 32  1  1
  9 33  1  0
  9 34  1  0
 11 35  1  0
 12 36  1  0
 17 37  1  0
 18 38  1  0
 19 39  1  0
 20 40  1  0
 21 41  1  0
M  END
>  <_MoleculeID>  (99) 
smi11

>  <_InputIndex>  (99) 
11

>  <_InputSMILES>  (99) 
CN1C[C@H]2CN(C[C@H]2C1)c1ccc(nn1)-c1ccccc1

>  <_InputInChIKey>  (99) 
GTMRUYCIJSNXGB-GASCZTMLSA-N

>  <_SMILES>  (99) 
CN1C[C@@H]2CN(c3ccc(-c4ccccc4)nn3)C[C@@H]2C1

>  <_InChIKey>  (99) 
GTMRUYCIJSNXGB-GASCZTMLSA-N

$$$$
smi11_conf2
     RDKit          3D

 41 44  0  0  0  0  0  0  0  0999 V2000
   10.4496   -2.3099    0.8904 C   0  0  0  0  0  0  0  0  0  0  0  0
    9.6244   -1.4034    0.1051 N   0  0  0  0  0  0  0  0  0  0  0  0
    8.8926   -0.4492    0.9439 C   0  0  0  0  0  0  0  0  0  0  0  0
    7.8695    0.1256   -0.0315 C   0  0  2  0  0  0  0  0  0  0  0  0
    6.4992    0.4263    0.5648 C   0  0  0  0  0  0  0  0  0  0  0  0
    5.5527   -0.2660   -0.2926 N   0  0  0  0  0  0  0  0  0  0  0  0
    6.1784   -1.3032   -1.0944 C   0  0  0  0  0  0  0  0  0  0  0  0
    7.6661   -0.9705   -1.0842 C   0  0  2  0  0  0  0  0  0  0  0  0
    8.5851   -2.1091   -0.6509 C   0  0  0  0  0  0  0  0  0  0  0  0
    4.1671   -0.1372   -0.1592 C   0  0  0  0  0  0  0  0  0  0  0  0
    3.5604    0.6646    0.8051 C   0  0  0  0  0  0  0  0  0  0  0  0
    2.1658    0.7619    0.9101 C   0  0  0  0  0  0  0  0  0  0  0  0
    1.4360   -0.0000    0.0000 C   0  0  0  0  0  0  0  0  0  0  0  0
    2.0285   -0.7800   -0.9296 N   0  0  0  0  0  0  0  0  0  0  0  0
    3.3913   -0.8426   -1.0071 N   0  0  0  0  0  0  0  0  0  0  0  0
    0.0000    0.0000    0.0000 C   0  0  0  0  0  0  0  0  0  0  0  0
   -0.7111    0.0000    1.2027 C   0  0  0  0  0  0  0  0  0  0  0  0
   -2.1138    0.0010    1.2110 C   0  0  0  0  0  0  0  0  0  0  0  0
   -2.8620   -0.0009    0.0236 C   0  0  0  0  0  0  0  0  0  0  0  0
   -2.1126   -0.0155   -1.1687 C   0  0  0  0  0  0  0  0  0  0  0  0
   -0.7114   -0.0194   -1.1991 C   0  0  0  0  0  0  0  0  0  0  0  0
    9.8647   -2.8935    1.6105 H   0  0  0  0  0  0  0  0  0  0  0  0
   10.9800   -3.0079    0.2337 H   0  0  0  0  0  0  0  0  0  0  0  0
   11.2114   -1.7489    1.4426 H   0  0  0  0  0  0  0  0  0  0  0  0
    9.5504    0.3325    1.3375 H   0  0  0  0  0  0  0  0  0  0  0  0
    8.4048   -0.9511    1.7890 H   0  0  0  0  0  0  0  0  0  0  0  0
    8.2774    1.0227   -0.5158 H   0  0  0  0  0  0  0  0  0  0  0  0
    6.4067    0.0697    1.5966 H   0  0  0  0  0  0  0  0  0  0  0  0
    6.3098    1.5057    0.5632 H   0  0  0  0  0  0  0  0  0  0  0  0
    5.7908   -1.2913   -2.1195 H   0  0  0  0  0  0  0  0  0  0  0  0
    5.9696   -2.2901   -0.6669 H   0  0  0  0  0  0  0  0  0  0  0  0
    7.9769   -0.5918   -2.0669 H   0  0  0  0  0  0  0  0  0  0  0  0
    8.9997   -2.6370   -1.5158 H   0  0  0  0  0  0  0  0  0  0  0  0
    8.0558   -2.8358   -0.0216 H   0  0  0  0  0  0  0  0  0  0  0  0
    4.1838    1.2043    1.5099 H   0  0  0  0  0  0  0  0  0  0  0  0
    1.6880    1.3787    1.6594 H   0  0  0  0  0  0  0  0  0  0  0  0
   -0.1814   -0.0042    2.1525 H   0  0  0  0  0  0  0  0  0  0  0  0
   -2.6026   -0.0043    2.1820 H   0  0  0  0  0  0  0  0  0  0  0  0
   -3.9439   -0.0005    0.0237 H   0  0  0  0  0  0  0  0  0  0  0  0
   -2.6514   -0.0242   -2.1154 H   0  0  0  0  0  0  0  0  0  0  0  0
   -0.1765   -0.0317   -2.1459 H   0  0  0  0  0  0  0  0  0  0  0  0
  1  2  1  0
  2  3  1  0
  4  3  1  0
  4  5  1  0
  5  6  1  0
  6  7  1  0
  8  7  1  0
  8  9  1  0
  6 10  1  0
 10 11  2  0
 11 12  1  0
 12 13  2  0
 13 14  1  0
 14 15  2  0
 13 16  1  0
 16 17  2  0
 17 18  1  0
 18 19  2  0
 19 20  1  0
 20 21  2  0
  9  2  1  0
 15 10  1  0
 21 16  1  0
  8  4  1  0
  1 22  1  0
  1 23  1  0
  1 24  1  0
  3 25  1  0
  3 26  1  0
  4 27  1  6
  5 28  1  0
  5 29  1  0
  7 30  1  0
  7 31  1  0
  8 32  1  6
  9 33  1  0
  9 34  1  0
 11 35  1  0
 12 36  1  0
 17 37  1  0
 18 38  1  0
 19 39  1  0
 20 40  1  0
 21 41  1  0
M  END
>  <_MoleculeID>  (100) 
smi11

>  <_InputIndex>  (100) 
11

>  <_InputSMILES>  (100) 
CN1C[C@H]2CN(C[C@H]2C1)c1ccc(nn1)-c1ccccc1

>  <_InputInChIKey>  (100) 
GTMRUYCIJSNXGB-GASCZTMLSA-N

>  <_SMILES>  (100) 
CN1C[C@@H]2CN(c3ccc(-c4ccccc4)nn3)C[C@@H]2C1

>  <_InChIKey>  (100) 
GTMRUYCIJSNXGB-GASCZTMLSA-N

$$$$
smi11_conf3
     RDKit          3D

 41 44  0  0  0  0  0  0  0  0999 V2000
    8.3422    3.5850    1.4882 C   0  0  0  0  0  0  0  0  0  0  0  0
    7.7547    2.2972    1.1494 N   0  0  0  0  0  0  0  0  0  0  0  0
    8.3149    1.7355   -0.0805 C   0  0  0  0  0  0  0  0  0  0  0  0
    7.8639    0.2721   -0.0418 C   0  0  2  0  0  0  0  0  0  0  0  0
    6.5005    0.0364   -0.7024 C   0  0  0  0  0  0  0  0  0  0  0  0
    5.5527    0.0157    0.3952 N   0  0  0  0  0  0  0  0  0  0  0  0
    6.1959   -0.4399    1.6126 C   0  0  0  0  0  0  0  0  0  0  0  0
    7.6659   -0.0332    1.4578 C   0  0  2  0  0  0  0  0  0  0  0  0
    8.0149    1.2787    2.1678 C   0  0  0  0  0  0  0  0  0  0  0  0
    4.1671    0.0027    0.2101 C   0  0  0  0  0  0  0  0  0  0  0  0
    3.5604    0.0084   -1.0439 C   0  0  0  0  0  0  0  0  0  0  0  0
    2.1658    0.0014   -1.1869 C   0  0  0  0  0  0  0  0  0  0  0  0
    1.4360    0.0000    0.0000 C   0  0  0  0  0  0  0  0  0  0  0  0
    2.0285    0.0000    1.2135 N   0  0  0  0  0  0  0  0  0  0  0  0
    3.3913   -0.0019    1.3131 N   0  0  0  0  0  0  0  0  0  0  0  0
    0.0000    0.0000    0.0000 C   0  0  0  0  0  0  0  0  0  0  0  0
   -0.7111    0.0000    1.2027 C   0  0  0  0  0  0  0  0  0  0  0  0
   -2.1138    0.0010    1.2110 C   0  0  0  0  0  0  0  0  0  0  0  0
   -2.8620   -0.0009    0.0236 C   0  0  0  0  0  0  0  0  0  0  0  0
   -2.1126   -0.0155   -1.1687 C   0  0  0  0  0  0  0  0  0  0  0  0
   -0.7114   -0.0194   -1.1991 C   0  0  0  0  0  0  0  0  0  0  0  0
    9.4290    3.5303    1.6187 H   0  0  0  0  0  0  0  0  0  0  0  0
    7.9047    3.9715    2.4150 H   0  0  0  0  0  0  0  0  0  0  0  0
    8.1279    4.3189    0.7037 H   0  0  0  0  0  0  0  0  0  0  0  0
    7.9630    2.2641   -0.9722 H   0  0  0  0  0  0  0  0  0  0  0  0
    9.4124    1.7761   -0.0701 H   0  0  0  0  0  0  0  0  0  0  0  0
    8.6262   -0.3666   -0.5013 H   0  0  0  0  0  0  0  0  0  0  0  0
    6.4957   -0.9386   -1.2046 H   0  0  0  0  0  0  0  0  0  0  0  0
    6.2536    0.8022   -1.4456 H   0  0  0  0  0  0  0  0  0  0  0  0
    5.7317   -0.0133    2.5082 H   0  0  0  0  0  0  0  0  0  0  0  0
    6.1183   -1.5320    1.6768 H   0  0  0  0  0  0  0  0  0  0  0  0
    8.3226   -0.8357    1.8113 H   0  0  0  0  0  0  0  0  0  0  0  0
    7.4222    1.4416    3.0737 H   0  0  0  0  0  0  0  0  0  0  0  0
    9.0758    1.2649    2.4515 H   0  0  0  0  0  0  0  0  0  0  0  0
    4.1838    0.0480   -1.9307 H   0  0  0  0  0  0  0  0  0  0  0  0
    1.6880    0.0105   -2.1574 H   0  0  0  0  0  0  0  0  0  0  0  0
   -0.1814   -0.0042    2.1525 H   0  0  0  0  0  0  0  0  0  0  0  0
   -2.6026   -0.0043    2.1820 H   0  0  0  0  0  0  0  0  0  0  0  0
   -3.9439   -0.0005    0.0237 H   0  0  0  0  0  0  0  0  0  0  0  0
   -2.6514   -0.0242   -2.1154 H   0  0  0  0  0  0  0  0  0  0  0  0
   -0.1765   -0.0317   -2.1459 H   0  0  0  0  0  0  0  0  0  0  0  0
  1  2  1  0
  2  3  1  0
  4  3  1  0
  4  5  1  0
  5  6  1  0
  6  7  1  0
  8  7  1  0
  8  9  1  0
  6 10  1  0
 10 11  2  0
 11 12  1  0
 12 13  2  0
 13 14  1  0
 14 15  2  0
 13 16  1  0
 16 17  2  0
 17 18  1  0
 18 19  2  0
 19 20  1  0
 20 21  2  0
  9  2  1  0
 15 10  1  0
 21 16  1  0
  8  4  1  0
  1 22  1  0
  1 23  1  0
  1 24  1  0
  3 25  1  0
  3 26  1  0
  4 27  1  6
  5 28  1  0
  5 29  1  0
  7 30  1  0
  7 31  1  0
  8 32  1  1
  9 33  1  0
  9 34  1  0
 11 35  1  0
 12 36  1  0
 17 37  1  0
 18 38  1  0
 19 39  1  0
 20 40  1  0
 21 41  1  0
M  END
>  <_MoleculeID>  (101) 
smi11

>  <_InputIndex>  (101) 
11

>  <_InputSMILES>  (101) 
CN1C[C@H]2CN(C[C@H]2C1)c1ccc(nn1)-c1ccccc1

>  <_InputInChIKey>  (101) 
GTMRUYCIJSNXGB-GASCZTMLSA-N

>  <_SMILES>  (101) 
CN1C[C@@H]2CN(c3ccc(-c4ccccc4)nn3)C[C@@H]2C1

>  <_InChIKey>  (101) 
GTMRUYCIJSNXGB-GASCZTMLSA-N

$$$$
smi11_conf4
     RDKit          3D

 41 44  0  0  0  0  0  0  0  0999 V2000
    7.1752    1.0088   -3.3473 C   0  0  0  0  0  0  0  0  0  0  0  0
    8.2934    0.6499   -2.4837 N   0  0  0  0  0  0  0  0  0  0  0  0
    8.2035    1.2923   -1.1665 C   0  0  0  0  0  0  0  0  0  0  0  0
    7.8469    0.2160   -0.1347 C   0  0  1  0  0  0  0  0  0  0  0  0
    6.5045    0.4210    0.5584 C   0  0  0  0  0  0  0  0  0  0  0  0
    5.5527   -0.2660   -0.2926 N   0  0  0  0  0  0  0  0  0  0  0  0
    6.1857   -1.3329   -1.0498 C   0  0  0  0  0  0  0  0  0  0  0  0
    7.6955   -1.0820   -0.9272 C   0  0  1  0  0  0  0  0  0  0  0  0
    8.4017   -0.7924   -2.2442 C   0  0  0  0  0  0  0  0  0  0  0  0
    4.1671   -0.1372   -0.1592 C   0  0  0  0  0  0  0  0  0  0  0  0
    3.5604    0.6646    0.8051 C   0  0  0  0  0  0  0  0  0  0  0  0
    2.1658    0.7619    0.9101 C   0  0  0  0  0  0  0  0  0  0  0  0
    1.4360   -0.0000    0.0000 C   0  0  0  0  0  0  0  0  0  0  0  0
    2.0285   -0.7800   -0.9296 N   0  0  0  0  0  0  0  0  0  0  0  0
    3.3913   -0.8426   -1.0071 N   0  0  0  0  0  0  0  0  0  0  0  0
    0.0000    0.0000    0.0000 C   0  0  0  0  0  0  0  0  0  0  0  0
   -0.7111    0.0000    1.2027 C   0  0  0  0  0  0  0  0  0  0  0  0
   -2.1138    0.0010    1.2110 C   0  0  0  0  0  0  0  0  0  0  0  0
   -2.8620   -0.0009    0.0236 C   0  0  0  0  0  0  0  0  0  0  0  0
   -2.1126   -0.0155   -1.1687 C   0  0  0  0  0  0  0  0  0  0  0  0
   -0.7114   -0.0194   -1.1991 C   0  0  0  0  0  0  0  0  0  0  0  0
    7.2520    0.4934   -4.3109 H   0  0  0  0  0  0  0  0  0  0  0  0
    6.1987    0.7810   -2.9117 H   0  0  0  0  0  0  0  0  0  0  0  0
    7.2012    2.0823   -3.5661 H   0  0  0  0  0  0  0  0  0  0  0  0
    7.5166    2.1467   -1.1489 H   0  0  0  0  0  0  0  0  0  0  0  0
    9.1942    1.6963   -0.9236 H   0  0  0  0  0  0  0  0  0  0  0  0
    8.6551    0.1445    0.6028 H   0  0  0  0  0  0  0  0  0  0  0  0
    6.5150   -0.0534    1.5470 H   0  0  0  0  0  0  0  0  0  0  0  0
    6.2587    1.4804    0.6880 H   0  0  0  0  0  0  0  0  0  0  0  0
    5.8389   -1.3502   -2.0882 H   0  0  0  0  0  0  0  0  0  0  0  0
    5.9371   -2.3032   -0.6031 H   0  0  0  0  0  0  0  0  0  0  0  0
    8.1681   -1.9266   -0.4124 H   0  0  0  0  0  0  0  0  0  0  0  0
    8.0336   -1.4053   -3.0747 H   0  0  0  0  0  0  0  0  0  0  0  0
    9.4676   -1.0287   -2.1324 H   0  0  0  0  0  0  0  0  0  0  0  0
    4.1838    1.2043    1.5099 H   0  0  0  0  0  0  0  0  0  0  0  0
    1.6880    1.3787    1.6594 H   0  0  0  0  0  0  0  0  0  0  0  0
   -0.1814   -0.0042    2.1525 H   0  0  0  0  0  0  0  0  0  0  0  0
   -2.6026   -0.0043    2.1820 H   0  0  0  0  0  0  0  0  0  0  0  0
   -3.9439   -0.0005    0.0237 H   0  0  0  0  0  0  0  0  0  0  0  0
   -2.6514   -0.0242   -2.1154 H   0  0  0  0  0  0  0  0  0  0  0  0
   -0.1765   -0.0317   -2.1459 H   0  0  0  0  0  0  0  0  0  0  0  0
  1  2  1  0
  2  3  1  0
  4  3  1  0
  4  5  1  0
  5  6  1  0
  6  7  1  0
  8  7  1  0
  8  9  1  0
  6 10  1  0
 10 11  2  0
 11 12  1  0
 12 13  2  0
 13 14  1  0
 14 15  2  0
 13 16  1  0
 16 17  2  0
 17 18  1  0
 18 19  2  0
 19 20  1  0
 20 21  2  0
  9  2  1  0
 15 10  1  0
 21 16  1  0
  8  4  1  0
  1 22  1  0
  1 23  1  0
  1 24  1  0
  3 25  1  0
  3 26  1  0
  4 27  1  1
  5 28  1  0
  5 29  1  0
  7 30  1  0
  7 31  1  0
  8 32  1  1
  9 33  1  0
  9 34  1  0
 11 35  1  0
 12 36  1  0
 17 37  1  0
 18 38  1  0
 19 39  1  0
 20 40  1  0
 21 41  1  0
M  END
>  <_MoleculeID>  (102) 
smi11

>  <_InputIndex>  (102) 
11

>  <_InputSMILES>  (102) 
CN1C[C@H]2CN(C[C@H]2C1)c1ccc(nn1)-c1ccccc1

>  <_InputInChIKey>  (102) 
GTMRUYCIJSNXGB-GASCZTMLSA-N

>  <_SMILES>  (102) 
CN1C[C@@H]2CN(c3ccc(-c4ccccc4)nn3)C[C@@H]2C1

>  <_InChIKey>  (102) 
GTMRUYCIJSNXGB-GASCZTMLSA-N

$$$$
smi11_conf5
     RDKit          3D

 41 44  0  0  0  0  0  0  0  0999 V2000
    6.2755    3.7434   -2.5547 C   0  0  0  0  0  0  0  0  0  0  0  0
    6.3790    2.4582   -1.8796 N   0  0  0  0  0  0  0  0  0  0  0  0
    7.2636    2.5103   -0.7147 C   0  0  0  0  0  0  0  0  0  0  0  0
    7.5264    1.0344   -0.4004 C   0  0  1  0  0  0  0  0  0  0  0  0
    6.5005    0.4236    0.5615 C   0  0  0  0  0  0  0  0  0  0  0  0
    5.5527   -0.2660   -0.2926 N   0  0  0  0  0  0  0  0  0  0  0  0
    6.1959   -0.6996   -1.5181 C   0  0  0  0  0  0  0  0  0  0  0  0
    7.3270    0.3094   -1.7479 C   0  0  1  0  0  0  0  0  0  0  0  0
    6.9614    1.4229   -2.7346 C   0  0  0  0  0  0  0  0  0  0  0  0
    4.1671   -0.1372   -0.1592 C   0  0  0  0  0  0  0  0  0  0  0  0
    3.5604    0.6646    0.8051 C   0  0  0  0  0  0  0  0  0  0  0  0
    2.1658    0.7619    0.9101 C   0  0  0  0  0  0  0  0  0  0  0  0
    1.4360   -0.0000    0.0000 C   0  0  0  0  0  0  0  0  0  0  0  0
    2.0285   -0.7800   -0.9296 N   0  0  0  0  0  0  0  0  0  0  0  0
    3.3913   -0.8426   -1.0071 N   0  0  0  0  0  0  0  0  0  0  0  0
    0.0000    0.0000    0.0000 C   0  0  0  0  0  0  0  0  0  0  0  0
   -0.7111    0.0000    1.2027 C   0  0  0  0  0  0  0  0  0  0  0  0
   -2.1138    0.0010    1.2110 C   0  0  0  0  0  0  0  0  0  0  0  0
   -2.8620   -0.0009    0.0236 C   0  0  0  0  0  0  0  0  0  0  0  0
   -2.1126   -0.0155   -1.1687 C   0  0  0  0  0  0  0  0  0  0  0  0
   -0.7114   -0.0194   -1.1991 C   0  0  0  0  0  0  0  0  0  0  0  0
    7.2467    4.1178   -2.8978 H   0  0  0  0  0  0  0  0  0  0  0  0
    5.6121    3.6657   -3.4228 H   0  0  0  0  0  0  0  0  0  0  0  0
    5.8377    4.4910   -1.8843 H   0  0  0  0  0  0  0  0  0  0  0  0
    6.8091    3.0479    0.1236 H   0  0  0  0  0  0  0  0  0  0  0  0
    8.2139    3.0025   -0.9612 H   0  0  0  0  0  0  0  0  0  0  0  0
    8.5408    0.9109   -0.0054 H   0  0  0  0  0  0  0  0  0  0  0  0
    6.9945   -0.3039    1.2171 H   0  0  0  0  0  0  0  0  0  0  0  0
    6.0148    1.1750    1.1933 H   0  0  0  0  0  0  0  0  0  0  0  0
    5.4940   -0.7458   -2.3576 H   0  0  0  0  0  0  0  0  0  0  0  0
    6.6172   -1.7016   -1.3716 H   0  0  0  0  0  0  0  0  0  0  0  0
    8.2340   -0.2049   -2.0841 H   0  0  0  0  0  0  0  0  0  0  0  0
    6.2648    1.0901   -3.5108 H   0  0  0  0  0  0  0  0  0  0  0  0
    7.8745    1.7837   -3.2267 H   0  0  0  0  0  0  0  0  0  0  0  0
    4.1838    1.2043    1.5099 H   0  0  0  0  0  0  0  0  0  0  0  0
    1.6880    1.3787    1.6594 H   0  0  0  0  0  0  0  0  0  0  0  0
   -0.1814   -0.0042    2.1525 H   0  0  0  0  0  0  0  0  0  0  0  0
   -2.6026   -0.0043    2.1820 H   0  0  0  0  0  0  0  0  0  0  0  0
   -3.9439   -0.0005    0.0237 H   0  0  0  0  0  0  0  0  0  0  0  0
   -2.6514   -0.0242   -2.1154 H   0  0  0  0  0  0  0  0  0  0  0  0
   -0.1765   -0.0317   -2.1459 H   0  0  0  0  0  0  0  0  0  0  0  0
  1  2  1  0
  2  3  1  0
  4  3  1  0
  4  5  1  0
  5  6  1  0
  6  7  1  0
  8  7  1  0
  8  9  1  0
  6 10  1  0
 10 11  2  0
 11 12  1  0
 12 13  2  0
 13 14  1  0
 14 15  2  0
 13 16  1  0
 16 17  2  0
 17 18  1  0
 18 19  2  0
 19 20  1  0
 20 21  2  0
  9  2  1  0
 15 10  1  0
 21 16  1  0
  8  4  1  0
  1 22  1  0
  1 23  1  0
  1 24  1  0
  3 25  1  0
  3 26  1  0
  4 27  1  1
  5 28  1  0
  5 29  1  0
  7 30  1  0
  7 31  1  0
  8 32  1  6
  9 33  1  0
  9 34  1  0
 11 35  1  0
 12 36  1  0
 17 37  1  0
 18 38  1  0
 19 39  1  0
 20 40  1  0
 21 41  1  0
M  END
>  <_MoleculeID>  (103) 
smi11

>  <_InputIndex>  (103) 
11

>  <_InputSMILES>  (103) 
CN1C[C@H]2CN(C[C@H]2C1)c1ccc(nn1)-c1ccccc1

>  <_InputInChIKey>  (103) 
GTMRUYCIJSNXGB-GASCZTMLSA-N

>  <_SMILES>  (103) 
CN1C[C@@H]2CN(c3ccc(-c4ccccc4)nn3)C[C@@H]2C1

>  <_InChIKey>  (103) 
GTMRUYCIJSNXGB-GASCZTMLSA-N

$$$$
smi11_conf6
     RDKit          3D

 41 44  0  0  0  0  0  0  0  0999 V2000
    7.5256   -2.8952   -0.7106 C   0  0  0  0  0  0  0  0  0  0  0  0
    8.4894   -2.0781    0.0164 N   0  0  0  0  0  0  0  0  0  0  0  0
    8.0288   -1.7543    1.3724 C   0  0  0  0  0  0  0  0  0  0  0  0
    7.6545   -0.2680    1.4065 C   0  0  2  0  0  0  0  0  0  0  0  0
    6.1844    0.0098    1.7001 C   0  0  0  0  0  0  0  0  0  0  0  0
    5.5527    0.0157    0.3952 N   0  0  0  0  0  0  0  0  0  0  0  0
    6.4945    0.3719   -0.6529 C   0  0  0  0  0  0  0  0  0  0  0  0
    7.8849    0.2486   -0.0133 C   0  0  2  0  0  0  0  0  0  0  0  0
    8.7852   -0.8036   -0.6452 C   0  0  0  0  0  0  0  0  0  0  0  0
    4.1671    0.0027    0.2101 C   0  0  0  0  0  0  0  0  0  0  0  0
    3.5604    0.0084   -1.0439 C   0  0  0  0  0  0  0  0  0  0  0  0
    2.1658    0.0014   -1.1869 C   0  0  0  0  0  0  0  0  0  0  0  0
    1.4360    0.0000    0.0000 C   0  0  0  0  0  0  0  0  0  0  0  0
    2.0285    0.0000    1.2135 N   0  0  0  0  0  0  0  0  0  0  0  0
    3.3913   -0.0019    1.3131 N   0  0  0  0  0  0  0  0  0  0  0  0
    0.0000    0.0000    0.0000 C   0  0  0  0  0  0  0  0  0  0  0  0
   -0.7111    0.0000    1.2027 C   0  0  0  0  0  0  0  0  0  0  0  0
   -2.1138    0.0010    1.2110 C   0  0  0  0  0  0  0  0  0  0  0  0
   -2.8620   -0.0009    0.0236 C   0  0  0  0  0  0  0  0  0  0  0  0
   -2.1126   -0.0155   -1.1687 C   0  0  0  0  0  0  0  0  0  0  0  0
   -0.7114   -0.0194   -1.1991 C   0  0  0  0  0  0  0  0  0  0  0  0
    7.8808   -3.0967   -1.7271 H   0  0  0  0  0  0  0  0  0  0  0  0
    6.5329   -2.4421   -0.7760 H   0  0  0  0  0  0  0  0  0  0  0  0
    7.4165   -3.8695   -0.2207 H   0  0  0  0  0  0  0  0  0  0  0  0
    7.2202   -2.4076    1.7212 H   0  0  0  0  0  0  0  0  0  0  0  0
    8.8684   -1.9202    2.0588 H   0  0  0  0  0  0  0  0  0  0  0  0
    8.2968    0.2470    2.1306 H   0  0  0  0  0  0  0  0  0  0  0  0
    6.0730    0.9986    2.1611 H   0  0  0  0  0  0  0  0  0  0  0  0
    5.7448   -0.7346    2.3726 H   0  0  0  0  0  0  0  0  0  0  0  0
    6.3732   -0.2635   -1.5362 H   0  0  0  0  0  0  0  0  0  0  0  0
    6.3254    1.4090   -0.9672 H   0  0  0  0  0  0  0  0  0  0  0  0
    8.3770    1.2281   -0.0114 H   0  0  0  0  0  0  0  0  0  0  0  0
    8.7002   -0.8445   -1.7370 H   0  0  0  0  0  0  0  0  0  0  0  0
    9.8304   -0.5525   -0.4242 H   0  0  0  0  0  0  0  0  0  0  0  0
    4.1838    0.0480   -1.9307 H   0  0  0  0  0  0  0  0  0  0  0  0
    1.6880    0.0105   -2.1574 H   0  0  0  0  0  0  0  0  0  0  0  0
   -0.1814   -0.0042    2.1525 H   0  0  0  0  0  0  0  0  0  0  0  0
   -2.6026   -0.0043    2.1820 H   0  0  0  0  0  0  0  0  0  0  0  0
   -3.9439   -0.0005    0.0237 H   0  0  0  0  0  0  0  0  0  0  0  0
   -2.6514   -0.0242   -2.1154 H   0  0  0  0  0  0  0  0  0  0  0  0
   -0.1765   -0.0317   -2.1459 H   0  0  0  0  0  0  0  0  0  0  0  0
  1  2  1  0
  2  3  1  0
  4  3  1  0
  4  5  1  0
  5  6  1  0
  6  7  1  0
  8  7  1  0
  8  9  1  0
  6 10  1  0
 10 11  2  0
 11 12  1  0
 12 13  2  0
 13 14  1  0
 14 15  2  0
 13 16  1  0
 16 17  2  0
 17 18  1  0
 18 19  2  0
 19 20  1  0
 20 21  2  0
  9  2  1  0
 15 10  1  0
 21 16  1  0
  8  4  1  0
  1 22  1  0
  1 23  1  0
  1 24  1  0
  3 25  1  0
  3 26  1  0
  4 27  1  1
  5 28  1  0
  5 29  1  0
  7 30  1  0
  7 31  1  0
  8 32  1  1
  9 33  1  0
  9 34  1  0
 11 35  1  0
 12 36  1  0
 17 37  1  0
 18 38  1  0
 19 39  1  0
 20 40  1  0
 21 41  1  0
M  END
>  <_MoleculeID>  (104) 
smi11

>  <_InputIndex>  (104) 
11

>  <_InputSMILES>  (104) 
CN1C[C@H]2CN(C[C@H]2C1)c1ccc(nn1)-c1ccccc1

>  <_InputInChIKey>  (104) 
GTMRUYCIJSNXGB-GASCZTMLSA-N

>  <_SMILES>  (104) 
CN1C[C@@H]2CN(c3ccc(-c4ccccc4)nn3)C[C@@H]2C1

>  <_InChIKey>  (104) 
GTMRUYCIJSNXGB-GASCZTMLSA-N

$$$$
smi11_conf7
     RDKit          3D

 41 44  0  0  0  0  0  0  0  0999 V2000
    5.8294   -3.3632    1.6873 C   0  0  0  0  0  0  0  0  0  0  0  0
    7.2043   -2.8883    1.5908 N   0  0  0  0  0  0  0  0  0  0  0  0
    7.3438   -1.5006    2.0498 C   0  0  0  0  0  0  0  0  0  0  0  0
    7.5910   -0.6154    0.8227 C   0  0  2  0  0  0  0  0  0  0  0  0
    6.5045    0.4210    0.5584 C   0  0  0  0  0  0  0  0  0  0  0  0
    5.5527   -0.2660   -0.2926 N   0  0  0  0  0  0  0  0  0  0  0  0
    6.1857   -1.3329   -1.0498 C   0  0  0  0  0  0  0  0  0  0  0  0
    7.5495   -1.5566   -0.3807 C   0  0  2  0  0  0  0  0  0  0  0  0
    7.7410   -2.9388    0.2275 C   0  0  0  0  0  0  0  0  0  0  0  0
    4.1671   -0.1372   -0.1592 C   0  0  0  0  0  0  0  0  0  0  0  0
    3.5604    0.6646    0.8051 C   0  0  0  0  0  0  0  0  0  0  0  0
    2.1658    0.7619    0.9101 C   0  0  0  0  0  0  0  0  0  0  0  0
    1.4360   -0.0000    0.0000 C   0  0  0  0  0  0  0  0  0  0  0  0
    2.0285   -0.7800   -0.9296 N   0  0  0  0  0  0  0  0  0  0  0  0
    3.3913   -0.8426   -1.0071 N   0  0  0  0  0  0  0  0  0  0  0  0
    0.0000    0.0000    0.0000 C   0  0  0  0  0  0  0  0  0  0  0  0
   -0.7111    0.0000    1.2027 C   0  0  0  0  0  0  0  0  0  0  0  0
   -2.1138    0.0010    1.2110 C   0  0  0  0  0  0  0  0  0  0  0  0
   -2.8620   -0.0009    0.0236 C   0  0  0  0  0  0  0  0  0  0  0  0
   -2.1126   -0.0155   -1.1687 C   0  0  0  0  0  0  0  0  0  0  0  0
   -0.7114   -0.0194   -1.1991 C   0  0  0  0  0  0  0  0  0  0  0  0
    5.7491   -4.3890    1.3116 H   0  0  0  0  0  0  0  0  0  0  0  0
    5.1148   -2.7400    1.1430 H   0  0  0  0  0  0  0  0  0  0  0  0
    5.5163   -3.3912    2.7372 H   0  0  0  0  0  0  0  0  0  0  0  0
    6.4986   -1.1606    2.6598 H   0  0  0  0  0  0  0  0  0  0  0  0
    8.2253   -1.4512    2.7010 H   0  0  0  0  0  0  0  0  0  0  0  0
    8.5701   -0.1318    0.9209 H   0  0  0  0  0  0  0  0  0  0  0  0
    6.9243    1.2764    0.0157 H   0  0  0  0  0  0  0  0  0  0  0  0
    6.0464    0.7909    1.4819 H   0  0  0  0  0  0  0  0  0  0  0  0
    5.5664   -2.2356   -1.0686 H   0  0  0  0  0  0  0  0  0  0  0  0
    6.3342   -1.0134   -2.0885 H   0  0  0  0  0  0  0  0  0  0  0  0
    8.3506   -1.3338   -1.0950 H   0  0  0  0  0  0  0  0  0  0  0  0
    7.3144   -3.7418   -0.3840 H   0  0  0  0  0  0  0  0  0  0  0  0
    8.8163   -3.1445    0.3041 H   0  0  0  0  0  0  0  0  0  0  0  0
    4.1838    1.2043    1.5099 H   0  0  0  0  0  0  0  0  0  0  0  0
    1.6880    1.3787    1.6594 H   0  0  0  0  0  0  0  0  0  0  0  0
   -0.1814   -0.0042    2.1525 H   0  0  0  0  0  0  0  0  0  0  0  0
   -2.6026   -0.0043    2.1820 H   0  0  0  0  0  0  0  0  0  0  0  0
   -3.9439   -0.0005    0.0237 H   0  0  0  0  0  0  0  0  0  0  0  0
   -2.6514   -0.0242   -2.1154 H   0  0  0  0  0  0  0  0  0  0  0  0
   -0.1765   -0.0317   -2.1459 H   0  0  0  0  0  0  0  0  0  0  0  0
  1  2  1  0
  2  3  1  0
  4  3  1  0
  4  5  1  0
  5  6  1  0
  6  7  1  0
  8  7  1  0
  8  9  1  0
  6 10  1  0
 10 11  2  0
 11 12  1  0
 12 13  2  0
 13 14  1  0
 14 15  2  0
 13 16  1  0
 16 17  2  0
 17 18  1  0
 18 19  2  0
 19 20  1  0
 20 21  2  0
  9  2  1  0
 15 10  1  0
 21 16  1  0
  8  4  1  0
  1 22  1  0
  1 23  1  0
  1 24  1  0
  3 25  1  0
  3 26  1  0
  4 27  1  1
  5 28  1  0
  5 29  1  0
  7 30  1  0
  7 31  1  0
  8 32  1  6
  9 33  1  0
  9 34  1  0
 11 35  1  0
 12 36  1  0
 17 37  1  0
 18 38  1  0
 19 39  1  0
 20 40  1  0
 21 41  1  0
M  END
>  <_MoleculeID>  (105) 
smi11

>  <_InputIndex>  (105) 
11

>  <_InputSMILES>  (105) 
CN1C[C@H]2CN(C[C@H]2C1)c1ccc(nn1)-c1ccccc1

>  <_InputInChIKey>  (105) 
GTMRUYCIJSNXGB-GASCZTMLSA-N

>  <_SMILES>  (105) 
CN1C[C@@H]2CN(c3ccc(-c4ccccc4)nn3)C[C@@H]2C1

>  <_InChIKey>  (105) 
GTMRUYCIJSNXGB-GASCZTMLSA-N

$$$$
smi11_conf8
     RDKit          3D

 41 44  0  0  0  0  0  0  0  0999 V2000
    9.4904   -2.9688   -1.3544 C   0  0  0  0  0  0  0  0  0  0  0  0
    8.3669   -2.2535   -0.7622 N   0  0  0  0  0  0  0  0  0  0  0  0
    8.4404   -2.1659    0.6993 C   0  0  0  0  0  0  0  0  0  0  0  0
    7.6943   -0.9043    1.1102 C   0  0  2  0  0  0  0  0  0  0  0  0
    6.1832   -1.0881    1.3120 C   0  0  0  0  0  0  0  0  0  0  0  0
    5.5527   -0.2420    0.3128 N   0  0  0  0  0  0  0  0  0  0  0  0
    6.4946    0.7017   -0.2566 C   0  0  0  0  0  0  0  0  0  0  0  0
    7.8513    0.0252   -0.0931 C   0  0  2  0  0  0  0  0  0  0  0  0
    8.2594   -0.8776   -1.2632 C   0  0  0  0  0  0  0  0  0  0  0  0
    4.1671   -0.1330    0.1627 C   0  0  0  0  0  0  0  0  0  0  0  0
    3.5604    0.6774   -0.7943 C   0  0  0  0  0  0  0  0  0  0  0  0
    2.1658    0.7640   -0.9083 C   0  0  0  0  0  0  0  0  0  0  0  0
    1.4360    0.0000    0.0000 C   0  0  0  0  0  0  0  0  0  0  0  0
    2.0285   -0.7800    0.9296 N   0  0  0  0  0  0  0  0  0  0  0  0
    3.3913   -0.8455    1.0047 N   0  0  0  0  0  0  0  0  0  0  0  0
    0.0000    0.0000    0.0000 C   0  0  0  0  0  0  0  0  0  0  0  0
   -0.7111    0.0000    1.2027 C   0  0  0  0  0  0  0  0  0  0  0  0
   -2.1138    0.0010    1.2110 C   0  0  0  0  0  0  0  0  0  0  0  0
   -2.8620   -0.0009    0.0236 C   0  0  0  0  0  0  0  0  0  0  0  0
   -2.1126   -0.0155   -1.1687 C   0  0  0  0  0  0  0  0  0  0  0  0
   -0.7114   -0.0194   -1.1991 C   0  0  0  0  0  0  0  0  0  0  0  0
    9.1875   -3.8000   -1.9968 H   0  0  0  0  0  0  0  0  0  0  0  0
   10.0946   -2.2827   -1.9587 H   0  0  0  0  0  0  0  0  0  0  0  0
   10.1523   -3.3595   -0.5737 H   0  0  0  0  0  0  0  0  0  0  0  0
    9.4982   -2.0541    0.9696 H   0  0  0  0  0  0  0  0  0  0  0  0
    8.0823   -3.0655    1.2124 H   0  0  0  0  0  0  0  0  0  0  0  0
    8.1364   -0.4714    2.0150 H   0  0  0  0  0  0  0  0  0  0  0  0
    5.8639   -2.1311    1.2165 H   0  0  0  0  0  0  0  0  0  0  0  0
    5.9030   -0.7483    2.3164 H   0  0  0  0  0  0  0  0  0  0  0  0
    6.4668    1.6341    0.3201 H   0  0  0  0  0  0  0  0  0  0  0  0
    6.2686    0.9373   -1.3020 H   0  0  0  0  0  0  0  0  0  0  0  0
    8.6368    0.7714    0.0755 H   0  0  0  0  0  0  0  0  0  0  0  0
    9.2534   -0.5706   -1.6116 H   0  0  0  0  0  0  0  0  0  0  0  0
    7.5936   -0.7839   -2.1293 H   0  0  0  0  0  0  0  0  0  0  0  0
    4.1838    1.2778   -1.4482 H   0  0  0  0  0  0  0  0  0  0  0  0
    1.6880    1.3948   -1.6459 H   0  0  0  0  0  0  0  0  0  0  0  0
   -0.1814   -0.0042    2.1525 H   0  0  0  0  0  0  0  0  0  0  0  0
   -2.6026   -0.0043    2.1820 H   0  0  0  0  0  0  0  0  0  0  0  0
   -3.9439   -0.0005    0.0237 H   0  0  0  0  0  0  0  0  0  0  0  0
   -2.6514   -0.0242   -2.1154 H   0  0  0  0  0  0  0  0  0  0  0  0
   -0.1765   -0.0317   -2.1459 H   0  0  0  0  0  0  0  0  0  0  0  0
  1  2  1  0
  2  3  1  0
  4  3  1  0
  4  5  1  0
  5  6  1  0
  6  7  1  0
  8  7  1  0
  8  9  1  0
  6 10  1  0
 10 11  2  0
 11 12  1  0
 12 13  2  0
 13 14  1  0
 14 15  2  0
 13 16  1  0
 16 17  2  0
 17 18  1  0
 18 19  2  0
 19 20  1  0
 20 21  2  0
  9  2  1  0
 15 10  1  0
 21 16  1  0
  8  4  1  0
  1 22  1  0
  1 23  1  0
  1 24  1  0
  3 25  1  0
  3 26  1  0
  4 27  1  1
  5 28  1  0
  5 29  1  0
  7 30  1  0
  7 31  1  0
  8 32  1  1
  9 33  1  0
  9 34  1  0
 11 35  1  0
 12 36  1  0
 17 37  1  0
 18 38  1  0
 19 39  1  0
 20 40  1  0
 21 41  1  0
M  END
>  <_MoleculeID>  (106) 
smi11

>  <_InputIndex>  (106) 
11

>  <_InputSMILES>  (106) 
CN1C[C@H]2CN(C[C@H]2C1)c1ccc(nn1)-c1ccccc1

>  <_InputInChIKey>  (106) 
GTMRUYCIJSNXGB-GASCZTMLSA-N

>  <_SMILES>  (106) 
CN1C[C@@H]2CN(c3ccc(-c4ccccc4)nn3)C[C@@H]2C1

>  <_InChIKey>  (106) 
GTMRUYCIJSNXGB-GASCZTMLSA-N

$$$$
smi11_conf9
     RDKit          3D

 41 44  0  0  0  0  0  0  0  0999 V2000
   10.5000    0.0422   -1.6896 C   0  0  0  0  0  0  0  0  0  0  0  0
    9.3288    0.8412   -1.3658 N   0  0  0  0  0  0  0  0  0  0  0  0
    9.0025    0.8197    0.0673 C   0  0  0  0  0  0  0  0  0  0  0  0
    7.8714   -0.2020    0.2069 C   0  0  1  0  0  0  0  0  0  0  0  0
    6.5123    0.4208    0.5583 C   0  0  0  0  0  0  0  0  0  0  0  0
    5.5527   -0.2660   -0.2926 N   0  0  0  0  0  0  0  0  0  0  0  0
    6.1916   -1.0997   -1.2973 C   0  0  0  0  0  0  0  0  0  0  0  0
    7.6695   -0.7503   -1.2040 C   0  0  1  0  0  0  0  0  0  0  0  0
    8.1301    0.4044   -2.0835 C   0  0  0  0  0  0  0  0  0  0  0  0
    4.1671   -0.1372   -0.1592 C   0  0  0  0  0  0  0  0  0  0  0  0
    3.5604    0.6646    0.8051 C   0  0  0  0  0  0  0  0  0  0  0  0
    2.1658    0.7619    0.9101 C   0  0  0  0  0  0  0  0  0  0  0  0
    1.4360   -0.0000    0.0000 C   0  0  0  0  0  0  0  0  0  0  0  0
    2.0285   -0.7800   -0.9296 N   0  0  0  0  0  0  0  0  0  0  0  0
    3.3913   -0.8426   -1.0071 N   0  0  0  0  0  0  0  0  0  0  0  0
    0.0000    0.0000    0.0000 C   0  0  0  0  0  0  0  0  0  0  0  0
   -0.7111    0.0000    1.2027 C   0  0  0  0  0  0  0  0  0  0  0  0
   -2.1138    0.0010    1.2110 C   0  0  0  0  0  0  0  0  0  0  0  0
   -2.8620   -0.0009    0.0236 C   0  0  0  0  0  0  0  0  0  0  0  0
   -2.1126   -0.0155   -1.1687 C   0  0  0  0  0  0  0  0  0  0  0  0
   -0.7114   -0.0194   -1.1991 C   0  0  0  0  0  0  0  0  0  0  0  0
   10.2349   -0.7588   -2.3882 H   0  0  0  0  0  0  0  0  0  0  0  0
   11.2998    0.6402   -2.1410 H   0  0  0  0  0  0  0  0  0  0  0  0
   10.8963   -0.4381   -0.7884 H   0  0  0  0  0  0  0  0  0  0  0  0
    8.7024    1.8019    0.4513 H   0  0  0  0  0  0  0  0  0  0  0  0
    9.8839    0.4975    0.6323 H   0  0  0  0  0  0  0  0  0  0  0  0
    8.1208   -1.0060    0.9089 H   0  0  0  0  0  0  0  0  0  0  0  0
    6.2869    0.2708    1.6201 H   0  0  0  0  0  0  0  0  0  0  0  0
    6.4802    1.4966    0.3513 H   0  0  0  0  0  0  0  0  0  0  0  0
    5.7907   -0.9178   -2.3003 H   0  0  0  0  0  0  0  0  0  0  0  0
    6.0349   -2.1545   -1.0438 H   0  0  0  0  0  0  0  0  0  0  0  0
    8.2976   -1.6311   -1.3890 H   0  0  0  0  0  0  0  0  0  0  0  0
    7.3741    1.1977   -2.1423 H   0  0  0  0  0  0  0  0  0  0  0  0
    8.3629    0.0663   -3.0983 H   0  0  0  0  0  0  0  0  0  0  0  0
    4.1838    1.2043    1.5099 H   0  0  0  0  0  0  0  0  0  0  0  0
    1.6880    1.3787    1.6594 H   0  0  0  0  0  0  0  0  0  0  0  0
   -0.1814   -0.0042    2.1525 H   0  0  0  0  0  0  0  0  0  0  0  0
   -2.6026   -0.0043    2.1820 H   0  0  0  0  0  0  0  0  0  0  0  0
   -3.9439   -0.0005    0.0237 H   0  0  0  0  0  0  0  0  0  0  0  0
   -2.6514   -0.0242   -2.1154 H   0  0  0  0  0  0  0  0  0  0  0  0
   -0.1765   -0.0317   -2.1459 H   0  0  0  0  0  0  0  0  0  0  0  0
  1  2  1  0
  2  3  1  0
  4  3  1  0
  4  5  1  0
  5  6  1  0
  6  7  1  0
  8  7  1  0
  8  9  1  0
  6 10  1  0
 10 11  2  0
 11 12  1  0
 12 13  2  0
 13 14  1  0
 14 15  2  0
 13 16  1  0
 16 17  2  0
 17 18  1  0
 18 19  2  0
 19 20  1  0
 20 21  2  0
  9  2  1  0
 15 10  1  0
 21 16  1  0
  8  4  1  0
  1 22  1  0
  1 23  1  0
  1 24  1  0
  3 25  1  0
  3 26  1  0
  4 27  1  1
  5 28  1  0
  5 29  1  0
  7 30  1  0
  7 31  1  0
  8 32  1  1
  9 33  1  0
  9 34  1  0
 11 35  1  0
 12 36  1  0
 17 37  1  0
 18 38  1  0
 19 39  1  0
 20 40  1  0
 21 41  1  0
M  END
>  <_MoleculeID>  (107) 
smi11

>  <_InputIndex>  (107) 
11

>  <_InputSMILES>  (107) 
CN1C[C@H]2CN(C[C@H]2C1)c1ccc(nn1)-c1ccccc1

>  <_InputInChIKey>  (107) 
GTMRUYCIJSNXGB-GASCZTMLSA-N

>  <_SMILES>  (107) 
CN1C[C@@H]2CN(c3ccc(-c4ccccc4)nn3)C[C@@H]2C1

>  <_InChIKey>  (107) 
GTMRUYCIJSNXGB-GASCZTMLSA-N

$$$$
smi12_conf0
     RDKit          3D

 49 52  0  0  0  0  0  0  0  0999 V2000
   -3.4761   -1.3693    5.6117 C   0  0  0  0  0  0  0  0  0  0  0  0
   -2.7680   -2.2586    6.5453 C   0  0  0  0  0  0  0  0  0  0  0  0
   -3.1013   -2.3313    7.8796 N   0  0  0  0  0  0  0  0  0  0  0  0
   -2.3531   -3.1962    8.5977 N   0  0  0  0  0  0  0  0  0  0  0  0
   -1.4844   -3.7244    7.7205 C   0  0  0  0  0  0  0  0  0  0  0  0
   -0.4649   -4.6845    7.9189 C   0  0  0  0  0  0  0  0  0  0  0  0
    0.2563   -4.9705    6.7317 C   0  0  0  0  0  0  0  0  0  0  0  0
   -0.0164   -4.3740    5.4618 C   0  0  0  0  0  0  0  0  0  0  0  0
   -1.0318   -3.4257    5.2440 C   0  0  0  0  0  0  0  0  0  0  0  0
   -1.7241   -3.1471    6.4195 C   0  0  0  0  0  0  0  0  0  0  0  0
    0.7983   -4.7672    4.3465 C   0  0  0  0  0  0  0  0  0  0  0  0
    1.3436   -6.0374    4.2963 C   0  0  0  0  0  0  0  0  0  0  0  0
    2.1230   -6.4895    3.2890 N   0  0  0  0  0  0  0  0  0  0  0  0
    2.3762   -5.6449    2.2601 C   0  0  0  0  0  0  0  0  0  0  0  0
    1.8764   -4.3412    2.2438 C   0  0  0  0  0  0  0  0  0  0  0  0
    2.1804   -3.5001    1.1981 O   0  0  0  0  0  0  0  0  0  0  0  0
    1.6414   -2.1892    1.2419 C   0  0  0  0  0  0  0  0  0  0  0  0
    2.0907   -1.4157    0.0000 C   0  0  2  0  0  0  0  0  0  0  0  0
    3.5553   -1.3430   -0.0285 N   0  0  0  0  0  0  0  0  0  0  0  0
    1.4860   -0.0000    0.0000 C   0  0  0  0  0  0  0  0  0  0  0  0
    0.0000    0.0000    0.0000 C   0  0  0  0  0  0  0  0  0  0  0  0
   -0.7111    0.0000    1.2027 C   0  0  0  0  0  0  0  0  0  0  0  0
   -2.1138    0.0010    1.2110 C   0  0  0  0  0  0  0  0  0  0  0  0
   -2.8620   -0.0009    0.0236 C   0  0  0  0  0  0  0  0  0  0  0  0
   -2.1126   -0.0155   -1.1687 C   0  0  0  0  0  0  0  0  0  0  0  0
   -0.7114   -0.0194   -1.1991 C   0  0  0  0  0  0  0  0  0  0  0  0
    1.0658   -3.8934    3.2944 C   0  0  0  0  0  0  0  0  0  0  0  0
   -4.2613   -0.8144    6.1334 H   0  0  0  0  0  0  0  0  0  0  0  0
   -3.9295   -1.9386    4.7946 H   0  0  0  0  0  0  0  0  0  0  0  0
   -2.7899   -0.6426    5.1644 H   0  0  0  0  0  0  0  0  0  0  0  0
   -3.8293   -1.8172    8.3593 H   0  0  0  0  0  0  0  0  0  0  0  0
   -0.2420   -5.1477    8.8701 H   0  0  0  0  0  0  0  0  0  0  0  0
    1.0745   -5.6900    6.7762 H   0  0  0  0  0  0  0  0  0  0  0  0
   -1.2218   -2.9846    4.2753 H   0  0  0  0  0  0  0  0  0  0  0  0
    1.1637   -6.7502    5.0945 H   0  0  0  0  0  0  0  0  0  0  0  0
    3.0006   -6.0308    1.4642 H   0  0  0  0  0  0  0  0  0  0  0  0
    0.5503   -2.2773    1.2699 H   0  0  0  0  0  0  0  0  0  0  0  0
    1.9815   -1.7035    2.1629 H   0  0  0  0  0  0  0  0  0  0  0  0
    1.7625   -1.9643   -0.8915 H   0  0  0  0  0  0  0  0  0  0  0  0
    3.8906   -0.8067    0.7710 H   0  0  0  0  0  0  0  0  0  0  0  0
    3.8636   -0.8380   -0.8580 H   0  0  0  0  0  0  0  0  0  0  0  0
    1.8532    0.5669   -0.8660 H   0  0  0  0  0  0  0  0  0  0  0  0
    1.8259    0.5527    0.8857 H   0  0  0  0  0  0  0  0  0  0  0  0
   -0.1814   -0.0042    2.1525 H   0  0  0  0  0  0  0  0  0  0  0  0
   -2.6026   -0.0043    2.1820 H   0  0  0  0  0  0  0  0  0  0  0  0
   -3.9439   -0.0005    0.0237 H   0  0  0  0  0  0  0  0  0  0  0  0
   -2.6514   -0.0242   -2.1154 H   0  0  0  0  0  0  0  0  0  0  0  0
   -0.1765   -0.0317   -2.1459 H   0  0  0  0  0  0  0  0  0  0  0  0
    0.6651   -2.8855    3.2933 H   0  0  0  0  0  0  0  0  0  0  0  0
  1  2  1  0
  2  3  1  0
  3  4  1  0
  4  5  2  0
  5  6  1  0
  6  7  2  0
  7  8  1  0
  8  9  2  0
  9 10  1  0
  8 11  1  0
 11 12  2  0
 12 13  1  0
 13 14  2  0
 14 15  1  0
 15 16  1  0
 16 17  1  0
 17 18  1  0
 18 19  1  0
 18 20  1  0
 20 21  1  0
 21 22  2  0
 22 23  1  0
 23 24  2  0
 24 25  1  0
 25 26  2  0
 15 27  2  0
 10  2  2  0
 27 11  1  0
 10  5  1  0
 26 21  1  0
  1 28  1  0
  1 29  1  0
  1 30  1  0
  3 31  1  0
  6 32  1  0
  7 33  1  0
  9 34  1  0
 12 35  1  0
 14 36  1  0
 17 37  1  0
 17 38  1  0
 18 39  1  6
 19 40  1  0
 19 41  1  0
 20 42  1  0
 20 43  1  0
 22 44  1  0
 23 45  1  0
 24 46  1  0
 25 47  1  0
 26 48  1  0
 27 49  1  0
M  END
>  <_MoleculeID>  (108) 
smi12

>  <_InputIndex>  (108) 
12

>  <_InputSMILES>  (108) 
Cc1[nH]nc2ccc(cc12)-c1cncc(OC[C@@H](N)Cc2ccccc2)c1

>  <_InputInChIKey>  (108) 
BPNUQXPIQBZCMR-IBGZPJMESA-N

>  <_SMILES>  (108) 
Cc1[nH]nc2ccc(-c3cncc(OC[C@@H](N)Cc4ccccc4)c3)cc12

>  <_InChIKey>  (108) 
BPNUQXPIQBZCMR-IBGZPJMESA-N

$$$$
smi12_conf1
     RDKit          3D

 49 52  0  0  0  0  0  0  0  0999 V2000
   12.2264   -6.4710    2.0203 C   0  0  0  0  0  0  0  0  0  0  0  0
   11.1525   -7.1606    1.2888 C   0  0  0  0  0  0  0  0  0  0  0  0
   11.2205   -8.5020    0.9847 N   0  0  0  0  0  0  0  0  0  0  0  0
   10.1523   -8.9784    0.3097 N   0  0  0  0  0  0  0  0  0  0  0  0
    9.3360   -7.9242    0.1508 C   0  0  0  0  0  0  0  0  0  0  0  0
    8.0752   -7.8401   -0.4845 C   0  0  0  0  0  0  0  0  0  0  0  0
    7.5344   -6.5293   -0.4567 C   0  0  0  0  0  0  0  0  0  0  0  0
    8.1743   -5.4084    0.1572 C   0  0  0  0  0  0  0  0  0  0  0  0
    9.4225   -5.4754    0.8016 C   0  0  0  0  0  0  0  0  0  0  0  0
    9.9458   -6.7649    0.7574 C   0  0  0  0  0  0  0  0  0  0  0  0
    7.5007   -4.1411    0.1084 C   0  0  0  0  0  0  0  0  0  0  0  0
    8.2294   -2.9656    0.0904 C   0  0  0  0  0  0  0  0  0  0  0  0
    7.6789   -1.7319    0.0485 N   0  0  0  0  0  0  0  0  0  0  0  0
    6.3271   -1.6457    0.0123 C   0  0  0  0  0  0  0  0  0  0  0  0
    5.5203   -2.7849    0.0439 C   0  0  0  0  0  0  0  0  0  0  0  0
    4.1501   -2.6588    0.0385 O   0  0  0  0  0  0  0  0  0  0  0  0
    3.6195   -1.3444   -0.0000 C   0  0  0  0  0  0  0  0  0  0  0  0
    2.0907   -1.4157    0.0000 C   0  0  2  0  0  0  0  0  0  0  0  0
    1.6352   -2.1631   -1.1769 N   0  0  0  0  0  0  0  0  0  0  0  0
    1.4860    0.0000    0.0000 C   0  0  0  0  0  0  0  0  0  0  0  0
    0.0000    0.0000    0.0000 C   0  0  0  0  0  0  0  0  0  0  0  0
   -0.7111    0.0000    1.2027 C   0  0  0  0  0  0  0  0  0  0  0  0
   -2.1138    0.0010    1.2110 C   0  0  0  0  0  0  0  0  0  0  0  0
   -2.8620   -0.0009    0.0236 C   0  0  0  0  0  0  0  0  0  0  0  0
   -2.1126   -0.0155   -1.1687 C   0  0  0  0  0  0  0  0  0  0  0  0
   -0.7114   -0.0194   -1.1991 C   0  0  0  0  0  0  0  0  0  0  0  0
    6.1100   -4.0546    0.0815 C   0  0  0  0  0  0  0  0  0  0  0  0
   13.0333   -7.1689    2.2624 H   0  0  0  0  0  0  0  0  0  0  0  0
   11.8496   -6.0314    2.9487 H   0  0  0  0  0  0  0  0  0  0  0  0
   12.6513   -5.6590    1.4211 H   0  0  0  0  0  0  0  0  0  0  0  0
   11.9681   -9.1456    1.2111 H   0  0  0  0  0  0  0  0  0  0  0  0
    7.5739   -8.6748   -0.9547 H   0  0  0  0  0  0  0  0  0  0  0  0
    6.5688   -6.3508   -0.9308 H   0  0  0  0  0  0  0  0  0  0  0  0
    9.8911   -4.6152    1.2592 H   0  0  0  0  0  0  0  0  0  0  0  0
    9.3141   -2.9851    0.1124 H   0  0  0  0  0  0  0  0  0  0  0  0
    5.9102   -0.6471   -0.0237 H   0  0  0  0  0  0  0  0  0  0  0  0
    3.9826   -0.8113    0.8849 H   0  0  0  0  0  0  0  0  0  0  0  0
    3.9986   -0.8421   -0.8966 H   0  0  0  0  0  0  0  0  0  0  0  0
    1.7660   -1.9628    0.8937 H   0  0  0  0  0  0  0  0  0  0  0  0
    1.8913   -1.6606   -2.0261 H   0  0  0  0  0  0  0  0  0  0  0  0
    0.6181   -2.2241   -1.1795 H   0  0  0  0  0  0  0  0  0  0  0  0
    1.8532    0.5669   -0.8660 H   0  0  0  0  0  0  0  0  0  0  0  0
    1.8259    0.5527    0.8857 H   0  0  0  0  0  0  0  0  0  0  0  0
   -0.1814   -0.0042    2.1525 H   0  0  0  0  0  0  0  0  0  0  0  0
   -2.6026   -0.0043    2.1820 H   0  0  0  0  0  0  0  0  0  0  0  0
   -3.9439   -0.0005    0.0237 H   0  0  0  0  0  0  0  0  0  0  0  0
   -2.6514   -0.0242   -2.1154 H   0  0  0  0  0  0  0  0  0  0  0  0
   -0.1765   -0.0317   -2.1459 H   0  0  0  0  0  0  0  0  0  0  0  0
    5.4970   -4.9492    0.1005 H   0  0  0  0  0  0  0  0  0  0  0  0
  1  2  1  0
  2  3  1  0
  3  4  1  0
  4  5  2  0
  5  6  1  0
  6  7  2  0
  7  8  1  0
  8  9  2  0
  9 10  1  0
  8 11  1  0
 11 12  2  0
 12 13  1  0
 13 14  2  0
 14 15  1  0
 15 16  1  0
 16 17  1  0
 17 18  1  0
 18 19  1  0
 18 20  1  0
 20 21  1  0
 21 22  2  0
 22 23  1  0
 23 24  2  0
 24 25  1  0
 25 26  2  0
 15 27  2  0
 10  2  2  0
 27 11  1  0
 10  5  1  0
 26 21  1  0
  1 28  1  0
  1 29  1  0
  1 30  1  0
  3 31  1  0
  6 32  1  0
  7 33  1  0
  9 34  1  0
 12 35  1  0
 14 36  1  0
 17 37  1  0
 17 38  1  0
 18 39  1  1
 19 40  1  0
 19 41  1  0
 20 42  1  0
 20 43  1  0
 22 44  1  0
 23 45  1  0
 24 46  1  0
 25 47  1  0
 26 48  1  0
 27 49  1  0
M  END
>  <_MoleculeID>  (109) 
smi12

>  <_InputIndex>  (109) 
12

>  <_InputSMILES>  (109) 
Cc1[nH]nc2ccc(cc12)-c1cncc(OC[C@@H](N)Cc2ccccc2)c1

>  <_InputInChIKey>  (109) 
BPNUQXPIQBZCMR-IBGZPJMESA-N

>  <_SMILES>  (109) 
Cc1[nH]nc2ccc(-c3cncc(OC[C@@H](N)Cc4ccccc4)c3)cc12

>  <_InChIKey>  (109) 
BPNUQXPIQBZCMR-IBGZPJMESA-N

$$$$
smi12_conf2
     RDKit          3D

 49 52  0  0  0  0  0  0  0  0999 V2000
   11.9819    3.8947    1.9200 C   0  0  0  0  0  0  0  0  0  0  0  0
   11.0518    4.0538    0.7916 C   0  0  0  0  0  0  0  0  0  0  0  0
   11.2169    5.0375   -0.1580 N   0  0  0  0  0  0  0  0  0  0  0  0
   10.2753    5.0456   -1.1260 N   0  0  0  0  0  0  0  0  0  0  0  0
    9.4455    4.0353   -0.8200 C   0  0  0  0  0  0  0  0  0  0  0  0
    8.2827    3.5824   -1.4858 C   0  0  0  0  0  0  0  0  0  0  0  0
    7.6680    2.4858   -0.8293 C   0  0  0  0  0  0  0  0  0  0  0  0
    8.1664    1.8825    0.3667 C   0  0  0  0  0  0  0  0  0  0  0  0
    9.3256    2.3130    1.0365 C   0  0  0  0  0  0  0  0  0  0  0  0
    9.9123    3.3958    0.3870 C   0  0  0  0  0  0  0  0  0  0  0  0
    7.4361    0.7738    0.9141 C   0  0  0  0  0  0  0  0  0  0  0  0
    8.0969   -0.2129    1.6234 C   0  0  0  0  0  0  0  0  0  0  0  0
    7.4906   -1.2906    2.1690 N   0  0  0  0  0  0  0  0  0  0  0  0
    6.1488   -1.4031    2.0173 C   0  0  0  0  0  0  0  0  0  0  0  0
    5.4117   -0.4580    1.3010 C   0  0  0  0  0  0  0  0  0  0  0  0
    4.0550   -0.6211    1.1393 O   0  0  0  0  0  0  0  0  0  0  0  0
    3.6195   -1.3444   -0.0000 C   0  0  0  0  0  0  0  0  0  0  0  0
    2.0907   -1.4157    0.0000 C   0  0  2  0  0  0  0  0  0  0  0  0
    1.6352   -2.1631   -1.1769 N   0  0  0  0  0  0  0  0  0  0  0  0
    1.4860    0.0000    0.0000 C   0  0  0  0  0  0  0  0  0  0  0  0
    0.0000    0.0000    0.0000 C   0  0  0  0  0  0  0  0  0  0  0  0
   -0.7111    0.0000    1.2027 C   0  0  0  0  0  0  0  0  0  0  0  0
   -2.1138    0.0010    1.2110 C   0  0  0  0  0  0  0  0  0  0  0  0
   -2.8620   -0.0009    0.0236 C   0  0  0  0  0  0  0  0  0  0  0  0
   -2.1126   -0.0155   -1.1687 C   0  0  0  0  0  0  0  0  0  0  0  0
   -0.7114   -0.0194   -1.1991 C   0  0  0  0  0  0  0  0  0  0  0  0
    6.0575    0.6549    0.7480 C   0  0  0  0  0  0  0  0  0  0  0  0
   12.7742    4.6476    1.8715 H   0  0  0  0  0  0  0  0  0  0  0  0
   12.4390    2.9006    1.9150 H   0  0  0  0  0  0  0  0  0  0  0  0
   11.4627    4.0128    2.8768 H   0  0  0  0  0  0  0  0  0  0  0  0
   11.9518    5.7321   -0.2008 H   0  0  0  0  0  0  0  0  0  0  0  0
    7.8887    4.0240   -2.3907 H   0  0  0  0  0  0  0  0  0  0  0  0
    6.7552    2.0661   -1.2533 H   0  0  0  0  0  0  0  0  0  0  0  0
    9.6861    1.8440    1.9416 H   0  0  0  0  0  0  0  0  0  0  0  0
    9.1701   -0.1625    1.7754 H   0  0  0  0  0  0  0  0  0  0  0  0
    5.6859   -2.2734    2.4654 H   0  0  0  0  0  0  0  0  0  0  0  0
    3.9829   -0.8183   -0.8889 H   0  0  0  0  0  0  0  0  0  0  0  0
    4.0686   -2.3431    0.0291 H   0  0  0  0  0  0  0  0  0  0  0  0
    1.7660   -1.9628    0.8937 H   0  0  0  0  0  0  0  0  0  0  0  0
    1.8913   -1.6606   -2.0261 H   0  0  0  0  0  0  0  0  0  0  0  0
    0.6181   -2.2241   -1.1795 H   0  0  0  0  0  0  0  0  0  0  0  0
    1.8532    0.5669   -0.8660 H   0  0  0  0  0  0  0  0  0  0  0  0
    1.8259    0.5527    0.8857 H   0  0  0  0  0  0  0  0  0  0  0  0
   -0.1814   -0.0042    2.1525 H   0  0  0  0  0  0  0  0  0  0  0  0
   -2.6026   -0.0043    2.1820 H   0  0  0  0  0  0  0  0  0  0  0  0
   -3.9439   -0.0005    0.0237 H   0  0  0  0  0  0  0  0  0  0  0  0
   -2.6514   -0.0242   -2.1154 H   0  0  0  0  0  0  0  0  0  0  0  0
   -0.1765   -0.0317   -2.1459 H   0  0  0  0  0  0  0  0  0  0  0  0
    5.4980    1.4007    0.1939 H   0  0  0  0  0  0  0  0  0  0  0  0
  1  2  1  0
  2  3  1  0
  3  4  1  0
  4  5  2  0
  5  6  1  0
  6  7  2  0
  7  8  1  0
  8  9  2  0
  9 10  1  0
  8 11  1  0
 11 12  2  0
 12 13  1  0
 13 14  2  0
 14 15  1  0
 15 16  1  0
 16 17  1  0
 17 18  1  0
 18 19  1  0
 18 20  1  0
 20 21  1  0
 21 22  2  0
 22 23  1  0
 23 24  2  0
 24 25  1  0
 25 26  2  0
 15 27  2  0
 10  2  2  0
 27 11  1  0
 10  5  1  0
 26 21  1  0
  1 28  1  0
  1 29  1  0
  1 30  1  0
  3 31  1  0
  6 32  1  0
  7 33  1  0
  9 34  1  0
 12 35  1  0
 14 36  1  0
 17 37  1  0
 17 38  1  0
 18 39  1  1
 19 40  1  0
 19 41  1  0
 20 42  1  0
 20 43  1  0
 22 44  1  0
 23 45  1  0
 24 46  1  0
 25 47  1  0
 26 48  1  0
 27 49  1  0
M  END
>  <_MoleculeID>  (110) 
smi12

>  <_InputIndex>  (110) 
12

>  <_InputSMILES>  (110) 
Cc1[nH]nc2ccc(cc12)-c1cncc(OC[C@@H](N)Cc2ccccc2)c1

>  <_InputInChIKey>  (110) 
BPNUQXPIQBZCMR-IBGZPJMESA-N

>  <_SMILES>  (110) 
Cc1[nH]nc2ccc(-c3cncc(OC[C@@H](N)Cc4ccccc4)c3)cc12

>  <_InChIKey>  (110) 
BPNUQXPIQBZCMR-IBGZPJMESA-N

$$$$
smi12_conf3
     RDKit          3D

 49 52  0  0  0  0  0  0  0  0999 V2000
    7.6062   -1.4099   -6.4816 C   0  0  0  0  0  0  0  0  0  0  0  0
    8.6285   -2.2397   -5.8257 C   0  0  0  0  0  0  0  0  0  0  0  0
    9.7235   -2.7236   -6.5065 N   0  0  0  0  0  0  0  0  0  0  0  0
   10.5649   -3.4682   -5.7575 N   0  0  0  0  0  0  0  0  0  0  0  0
   10.0202   -3.4898   -4.5303 C   0  0  0  0  0  0  0  0  0  0  0  0
   10.4720   -4.1204   -3.3477 C   0  0  0  0  0  0  0  0  0  0  0  0
    9.5957   -3.9192   -2.2509 C   0  0  0  0  0  0  0  0  0  0  0  0
    8.3919   -3.1514   -2.3139 C   0  0  0  0  0  0  0  0  0  0  0  0
    7.9325   -2.5095   -3.4777 C   0  0  0  0  0  0  0  0  0  0  0  0
    8.7967   -2.7242   -4.5482 C   0  0  0  0  0  0  0  0  0  0  0  0
    7.6075   -3.0333   -1.1168 C   0  0  0  0  0  0  0  0  0  0  0  0
    8.2197   -3.0692    0.1230 C   0  0  0  0  0  0  0  0  0  0  0  0
    7.5601   -2.9690    1.2984 N   0  0  0  0  0  0  0  0  0  0  0  0
    6.2146   -2.8142    1.2550 C   0  0  0  0  0  0  0  0  0  0  0  0
    5.5203   -2.7849    0.0439 C   0  0  0  0  0  0  0  0  0  0  0  0
    4.1501   -2.6588    0.0385 O   0  0  0  0  0  0  0  0  0  0  0  0
    3.6195   -1.3444   -0.0000 C   0  0  0  0  0  0  0  0  0  0  0  0
    2.0907   -1.4157    0.0000 C   0  0  2  0  0  0  0  0  0  0  0  0
    1.6352   -2.1631   -1.1769 N   0  0  0  0  0  0  0  0  0  0  0  0
    1.4860    0.0000    0.0000 C   0  0  0  0  0  0  0  0  0  0  0  0
    0.0000    0.0000    0.0000 C   0  0  0  0  0  0  0  0  0  0  0  0
   -0.7111    0.0000    1.2027 C   0  0  0  0  0  0  0  0  0  0  0  0
   -2.1138    0.0010    1.2110 C   0  0  0  0  0  0  0  0  0  0  0  0
   -2.8620   -0.0009    0.0236 C   0  0  0  0  0  0  0  0  0  0  0  0
   -2.1126   -0.0155   -1.1687 C   0  0  0  0  0  0  0  0  0  0  0  0
   -0.7114   -0.0194   -1.1991 C   0  0  0  0  0  0  0  0  0  0  0  0
    6.2226   -2.8845   -1.1636 C   0  0  0  0  0  0  0  0  0  0  0  0
    7.8561   -1.2573   -7.5356 H   0  0  0  0  0  0  0  0  0  0  0  0
    7.5206   -0.4340   -5.9943 H   0  0  0  0  0  0  0  0  0  0  0  0
    6.6223   -1.8882   -6.4342 H   0  0  0  0  0  0  0  0  0  0  0  0
    9.9527   -2.5797   -7.4818 H   0  0  0  0  0  0  0  0  0  0  0  0
   11.3787   -4.7054   -3.2783 H   0  0  0  0  0  0  0  0  0  0  0  0
    9.8441   -4.3742   -1.2915 H   0  0  0  0  0  0  0  0  0  0  0  0
    7.0177   -1.9339   -3.5057 H   0  0  0  0  0  0  0  0  0  0  0  0
    9.2953   -3.1860    0.2073 H   0  0  0  0  0  0  0  0  0  0  0  0
    5.7093   -2.7336    2.2092 H   0  0  0  0  0  0  0  0  0  0  0  0
    3.9826   -0.8113    0.8849 H   0  0  0  0  0  0  0  0  0  0  0  0
    3.9986   -0.8421   -0.8966 H   0  0  0  0  0  0  0  0  0  0  0  0
    1.7660   -1.9628    0.8937 H   0  0  0  0  0  0  0  0  0  0  0  0
    1.8913   -1.6606   -2.0261 H   0  0  0  0  0  0  0  0  0  0  0  0
    0.6181   -2.2241   -1.1795 H   0  0  0  0  0  0  0  0  0  0  0  0
    1.8532    0.5669   -0.8660 H   0  0  0  0  0  0  0  0  0  0  0  0
    1.8259    0.5527    0.8857 H   0  0  0  0  0  0  0  0  0  0  0  0
   -0.1814   -0.0042    2.1525 H   0  0  0  0  0  0  0  0  0  0  0  0
   -2.6026   -0.0043    2.1820 H   0  0  0  0  0  0  0  0  0  0  0  0
   -3.9439   -0.0005    0.0237 H   0  0  0  0  0  0  0  0  0  0  0  0
   -2.6514   -0.0242   -2.1154 H   0  0  0  0  0  0  0  0  0  0  0  0
   -0.1765   -0.0317   -2.1459 H   0  0  0  0  0  0  0  0  0  0  0  0
    5.6983   -2.8574   -2.1127 H   0  0  0  0  0  0  0  0  0  0  0  0
  1  2  1  0
  2  3  1  0
  3  4  1  0
  4  5  2  0
  5  6  1  0
  6  7  2  0
  7  8  1  0
  8  9  2  0
  9 10  1  0
  8 11  1  0
 11 12  2  0
 12 13  1  0
 13 14  2  0
 14 15  1  0
 15 16  1  0
 16 17  1  0
 17 18  1  0
 18 19  1  0
 18 20  1  0
 20 21  1  0
 21 22  2  0
 22 23  1  0
 23 24  2  0
 24 25  1  0
 25 26  2  0
 15 27  2  0
 10  2  2  0
 27 11  1  0
 10  5  1  0
 26 21  1  0
  1 28  1  0
  1 29  1  0
  1 30  1  0
  3 31  1  0
  6 32  1  0
  7 33  1  0
  9 34  1  0
 12 35  1  0
 14 36  1  0
 17 37  1  0
 17 38  1  0
 18 39  1  1
 19 40  1  0
 19 41  1  0
 20 42  1  0
 20 43  1  0
 22 44  1  0
 23 45  1  0
 24 46  1  0
 25 47  1  0
 26 48  1  0
 27 49  1  0
M  END
>  <_MoleculeID>  (111) 
smi12

>  <_InputIndex>  (111) 
12

>  <_InputSMILES>  (111) 
Cc1[nH]nc2ccc(cc12)-c1cncc(OC[C@@H](N)Cc2ccccc2)c1

>  <_InputInChIKey>  (111) 
BPNUQXPIQBZCMR-IBGZPJMESA-N

>  <_SMILES>  (111) 
Cc1[nH]nc2ccc(-c3cncc(OC[C@@H](N)Cc4ccccc4)c3)cc12

>  <_InChIKey>  (111) 
BPNUQXPIQBZCMR-IBGZPJMESA-N

$$$$
smi12_conf4
     RDKit          3D

 49 52  0  0  0  0  0  0  0  0999 V2000
   -1.1940   -6.9976   -6.5522 C   0  0  0  0  0  0  0  0  0  0  0  0
    0.2209   -6.6436   -6.3611 C   0  0  0  0  0  0  0  0  0  0  0  0
    1.1249   -6.6604   -7.3999 N   0  0  0  0  0  0  0  0  0  0  0  0
    2.3822   -6.3093   -7.0544 N   0  0  0  0  0  0  0  0  0  0  0  0
    2.3270   -6.0480   -5.7385 C   0  0  0  0  0  0  0  0  0  0  0  0
    3.3488   -5.6376   -4.8509 C   0  0  0  0  0  0  0  0  0  0  0  0
    2.8873   -5.4823   -3.5189 C   0  0  0  0  0  0  0  0  0  0  0  0
    1.5360   -5.6972   -3.1060 C   0  0  0  0  0  0  0  0  0  0  0  0
    0.5053   -6.0956   -3.9759 C   0  0  0  0  0  0  0  0  0  0  0  0
    0.9749   -6.2542   -5.2771 C   0  0  0  0  0  0  0  0  0  0  0  0
    1.2173   -5.4959   -1.7203 C   0  0  0  0  0  0  0  0  0  0  0  0
    0.2027   -6.2246   -1.1263 C   0  0  0  0  0  0  0  0  0  0  0  0
   -0.1656   -6.0974    0.1678 N   0  0  0  0  0  0  0  0  0  0  0  0
    0.5107   -5.2050    0.9310 C   0  0  0  0  0  0  0  0  0  0  0  0
    1.5367   -4.4194    0.4021 C   0  0  0  0  0  0  0  0  0  0  0  0
    2.1804   -3.5001    1.1981 O   0  0  0  0  0  0  0  0  0  0  0  0
    1.6414   -2.1892    1.2419 C   0  0  0  0  0  0  0  0  0  0  0  0
    2.0907   -1.4157    0.0000 C   0  0  2  0  0  0  0  0  0  0  0  0
    3.5553   -1.3430   -0.0285 N   0  0  0  0  0  0  0  0  0  0  0  0
    1.4860   -0.0000    0.0000 C   0  0  0  0  0  0  0  0  0  0  0  0
    0.0000    0.0000    0.0000 C   0  0  0  0  0  0  0  0  0  0  0  0
   -0.7111    0.0000    1.2027 C   0  0  0  0  0  0  0  0  0  0  0  0
   -2.1138    0.0010    1.2110 C   0  0  0  0  0  0  0  0  0  0  0  0
   -2.8620   -0.0009    0.0236 C   0  0  0  0  0  0  0  0  0  0  0  0
   -2.1126   -0.0155   -1.1687 C   0  0  0  0  0  0  0  0  0  0  0  0
   -0.7114   -0.0194   -1.1991 C   0  0  0  0  0  0  0  0  0  0  0  0
    1.9075   -4.5702   -0.9400 C   0  0  0  0  0  0  0  0  0  0  0  0
   -1.3849   -7.2588   -7.5972 H   0  0  0  0  0  0  0  0  0  0  0  0
   -1.8481   -6.1670   -6.2707 H   0  0  0  0  0  0  0  0  0  0  0  0
   -1.4707   -7.8578   -5.9337 H   0  0  0  0  0  0  0  0  0  0  0  0
    0.9449   -6.9015   -8.3663 H   0  0  0  0  0  0  0  0  0  0  0  0
    4.3765   -5.4696   -5.1421 H   0  0  0  0  0  0  0  0  0  0  0  0
    3.5987   -5.1799   -2.7498 H   0  0  0  0  0  0  0  0  0  0  0  0
   -0.5113   -6.2545   -3.6438 H   0  0  0  0  0  0  0  0  0  0  0  0
   -0.3628   -6.9546   -1.6962 H   0  0  0  0  0  0  0  0  0  0  0  0
    0.1989   -5.1232    1.9647 H   0  0  0  0  0  0  0  0  0  0  0  0
    0.5503   -2.2773    1.2699 H   0  0  0  0  0  0  0  0  0  0  0  0
    1.9815   -1.7035    2.1629 H   0  0  0  0  0  0  0  0  0  0  0  0
    1.7625   -1.9643   -0.8915 H   0  0  0  0  0  0  0  0  0  0  0  0
    3.8906   -0.8067    0.7710 H   0  0  0  0  0  0  0  0  0  0  0  0
    3.8636   -0.8380   -0.8580 H   0  0  0  0  0  0  0  0  0  0  0  0
    1.8532    0.5669   -0.8660 H   0  0  0  0  0  0  0  0  0  0  0  0
    1.8259    0.5527    0.8857 H   0  0  0  0  0  0  0  0  0  0  0  0
   -0.1814   -0.0042    2.1525 H   0  0  0  0  0  0  0  0  0  0  0  0
   -2.6026   -0.0043    2.1820 H   0  0  0  0  0  0  0  0  0  0  0  0
   -3.9439   -0.0005    0.0237 H   0  0  0  0  0  0  0  0  0  0  0  0
   -2.6514   -0.0242   -2.1154 H   0  0  0  0  0  0  0  0  0  0  0  0
   -0.1765   -0.0317   -2.1459 H   0  0  0  0  0  0  0  0  0  0  0  0
    2.7064   -3.9716   -1.3640 H   0  0  0  0  0  0  0  0  0  0  0  0
  1  2  1  0
  2  3  1  0
  3  4  1  0
  4  5  2  0
  5  6  1  0
  6  7  2  0
  7  8  1  0
  8  9  2  0
  9 10  1  0
  8 11  1  0
 11 12  2  0
 12 13  1  0
 13 14  2  0
 14 15  1  0
 15 16  1  0
 16 17  1  0
 17 18  1  0
 18 19  1  0
 18 20  1  0
 20 21  1  0
 21 22  2  0
 22 23  1  0
 23 24  2  0
 24 25  1  0
 25 26  2  0
 15 27  2  0
 10  2  2  0
 27 11  1  0
 10  5  1  0
 26 21  1  0
  1 28  1  0
  1 29  1  0
  1 30  1  0
  3 31  1  0
  6 32  1  0
  7 33  1  0
  9 34  1  0
 12 35  1  0
 14 36  1  0
 17 37  1  0
 17 38  1  0
 18 39  1  6
 19 40  1  0
 19 41  1  0
 20 42  1  0
 20 43  1  0
 22 44  1  0
 23 45  1  0
 24 46  1  0
 25 47  1  0
 26 48  1  0
 27 49  1  0
M  END
>  <_MoleculeID>  (112) 
smi12

>  <_InputIndex>  (112) 
12

>  <_InputSMILES>  (112) 
Cc1[nH]nc2ccc(cc12)-c1cncc(OC[C@@H](N)Cc2ccccc2)c1

>  <_InputInChIKey>  (112) 
BPNUQXPIQBZCMR-IBGZPJMESA-N

>  <_SMILES>  (112) 
Cc1[nH]nc2ccc(-c3cncc(OC[C@@H](N)Cc4ccccc4)c3)cc12

>  <_InChIKey>  (112) 
BPNUQXPIQBZCMR-IBGZPJMESA-N

$$$$
smi12_conf5
     RDKit          3D

 49 52  0  0  0  0  0  0  0  0999 V2000
    7.9732   -6.8372    7.2226 C   0  0  0  0  0  0  0  0  0  0  0  0
    8.3386   -5.4857    6.7711 C   0  0  0  0  0  0  0  0  0  0  0  0
    9.4098   -4.8027    7.3027 N   0  0  0  0  0  0  0  0  0  0  0  0
    9.6076   -3.5744    6.7776 N   0  0  0  0  0  0  0  0  0  0  0  0
    8.6373   -3.4212    5.8621 C   0  0  0  0  0  0  0  0  0  0  0  0
    8.3591   -2.3283    5.0085 C   0  0  0  0  0  0  0  0  0  0  0  0
    7.2231   -2.5492    4.1887 C   0  0  0  0  0  0  0  0  0  0  0  0
    6.4436   -3.7472    4.2006 C   0  0  0  0  0  0  0  0  0  0  0  0
    6.7111   -4.8472    5.0350 C   0  0  0  0  0  0  0  0  0  0  0  0
    7.8220   -4.6122    5.8409 C   0  0  0  0  0  0  0  0  0  0  0  0
    5.3212   -3.8268    3.3084 C   0  0  0  0  0  0  0  0  0  0  0  0
    4.2141   -4.5831    3.6482 C   0  0  0  0  0  0  0  0  0  0  0  0
    3.1178   -4.7163    2.8691 N   0  0  0  0  0  0  0  0  0  0  0  0
    3.1023   -4.0580    1.6848 C   0  0  0  0  0  0  0  0  0  0  0  0
    4.1871   -3.2874    1.2619 C   0  0  0  0  0  0  0  0  0  0  0  0
    4.1501   -2.6588    0.0385 O   0  0  0  0  0  0  0  0  0  0  0  0
    3.6195   -1.3444   -0.0000 C   0  0  0  0  0  0  0  0  0  0  0  0
    2.0907   -1.4157    0.0000 C   0  0  2  0  0  0  0  0  0  0  0  0
    1.6352   -2.1631   -1.1769 N   0  0  0  0  0  0  0  0  0  0  0  0
    1.4860    0.0000    0.0000 C   0  0  0  0  0  0  0  0  0  0  0  0
    0.0000    0.0000    0.0000 C   0  0  0  0  0  0  0  0  0  0  0  0
   -0.7111    0.0000    1.2027 C   0  0  0  0  0  0  0  0  0  0  0  0
   -2.1138    0.0010    1.2110 C   0  0  0  0  0  0  0  0  0  0  0  0
   -2.8620   -0.0009    0.0236 C   0  0  0  0  0  0  0  0  0  0  0  0
   -2.1126   -0.0155   -1.1687 C   0  0  0  0  0  0  0  0  0  0  0  0
   -0.7114   -0.0194   -1.1991 C   0  0  0  0  0  0  0  0  0  0  0  0
    5.3118   -3.1571    2.0863 C   0  0  0  0  0  0  0  0  0  0  0  0
    8.6594   -7.1779    8.0035 H   0  0  0  0  0  0  0  0  0  0  0  0
    8.0013   -7.5495    6.3926 H   0  0  0  0  0  0  0  0  0  0  0  0
    6.9588   -6.8529    7.6348 H   0  0  0  0  0  0  0  0  0  0  0  0
   10.0437   -5.1212    8.0245 H   0  0  0  0  0  0  0  0  0  0  0  0
    8.9352   -1.4137    4.9835 H   0  0  0  0  0  0  0  0  0  0  0  0
    6.9127   -1.7625    3.5004 H   0  0  0  0  0  0  0  0  0  0  0  0
    6.1085   -5.7449    5.0302 H   0  0  0  0  0  0  0  0  0  0  0  0
    4.1787   -5.1232    4.5887 H   0  0  0  0  0  0  0  0  0  0  0  0
    2.2123   -4.1783    1.0799 H   0  0  0  0  0  0  0  0  0  0  0  0
    3.9826   -0.8113    0.8849 H   0  0  0  0  0  0  0  0  0  0  0  0
    3.9986   -0.8421   -0.8966 H   0  0  0  0  0  0  0  0  0  0  0  0
    1.7660   -1.9628    0.8937 H   0  0  0  0  0  0  0  0  0  0  0  0
    1.8913   -1.6606   -2.0261 H   0  0  0  0  0  0  0  0  0  0  0  0
    0.6181   -2.2241   -1.1795 H   0  0  0  0  0  0  0  0  0  0  0  0
    1.8532    0.5669   -0.8660 H   0  0  0  0  0  0  0  0  0  0  0  0
    1.8259    0.5527    0.8857 H   0  0  0  0  0  0  0  0  0  0  0  0
   -0.1814   -0.0042    2.1525 H   0  0  0  0  0  0  0  0  0  0  0  0
   -2.6026   -0.0043    2.1820 H   0  0  0  0  0  0  0  0  0  0  0  0
   -3.9439   -0.0005    0.0237 H   0  0  0  0  0  0  0  0  0  0  0  0
   -2.6514   -0.0242   -2.1154 H   0  0  0  0  0  0  0  0  0  0  0  0
   -0.1765   -0.0317   -2.1459 H   0  0  0  0  0  0  0  0  0  0  0  0
    6.1600   -2.5573    1.7745 H   0  0  0  0  0  0  0  0  0  0  0  0
  1  2  1  0
  2  3  1  0
  3  4  1  0
  4  5  2  0
  5  6  1  0
  6  7  2  0
  7  8  1  0
  8  9  2  0
  9 10  1  0
  8 11  1  0
 11 12  2  0
 12 13  1  0
 13 14  2  0
 14 15  1  0
 15 16  1  0
 16 17  1  0
 17 18  1  0
 18 19  1  0
 18 20  1  0
 20 21  1  0
 21 22  2  0
 22 23  1  0
 23 24  2  0
 24 25  1  0
 25 26  2  0
 15 27  2  0
 10  2  2  0
 27 11  1  0
 10  5  1  0
 26 21  1  0
  1 28  1  0
  1 29  1  0
  1 30  1  0
  3 31  1  0
  6 32  1  0
  7 33  1  0
  9 34  1  0
 12 35  1  0
 14 36  1  0
 17 37  1  0
 17 38  1  0
 18 39  1  1
 19 40  1  0
 19 41  1  0
 20 42  1  0
 20 43  1  0
 22 44  1  0
 23 45  1  0
 24 46  1  0
 25 47  1  0
 26 48  1  0
 27 49  1  0
M  END
>  <_MoleculeID>  (113) 
smi12

>  <_InputIndex>  (113) 
12

>  <_InputSMILES>  (113) 
Cc1[nH]nc2ccc(cc12)-c1cncc(OC[C@@H](N)Cc2ccccc2)c1

>  <_InputInChIKey>  (113) 
BPNUQXPIQBZCMR-IBGZPJMESA-N

>  <_SMILES>  (113) 
Cc1[nH]nc2ccc(-c3cncc(OC[C@@H](N)Cc4ccccc4)c3)cc12

>  <_InChIKey>  (113) 
BPNUQXPIQBZCMR-IBGZPJMESA-N

$$$$
smi12_conf6
     RDKit          3D

 49 52  0  0  0  0  0  0  0  0999 V2000
    0.0052    0.4181    5.4576 C   0  0  0  0  0  0  0  0  0  0  0  0
    0.9769   -0.3115    6.2867 C   0  0  0  0  0  0  0  0  0  0  0  0
    1.0545   -0.1317    7.6499 N   0  0  0  0  0  0  0  0  0  0  0  0
    2.0002   -0.8776    8.2606 N   0  0  0  0  0  0  0  0  0  0  0  0
    2.5822   -1.5836    7.2778 C   0  0  0  0  0  0  0  0  0  0  0  0
    3.6355   -2.5256    7.3382 C   0  0  0  0  0  0  0  0  0  0  0  0
    3.9797   -3.0444    6.0639 C   0  0  0  0  0  0  0  0  0  0  0  0
    3.3310   -2.6775    4.8444 C   0  0  0  0  0  0  0  0  0  0  0  0
    2.2761   -1.7508    4.7667 C   0  0  0  0  0  0  0  0  0  0  0  0
    1.9561   -1.2423    6.0228 C   0  0  0  0  0  0  0  0  0  0  0  0
    3.7881   -3.2919    3.6296 C   0  0  0  0  0  0  0  0  0  0  0  0
    4.3220   -4.5678    3.6528 C   0  0  0  0  0  0  0  0  0  0  0  0
    4.7786   -5.2194    2.5604 N   0  0  0  0  0  0  0  0  0  0  0  0
    4.6979   -4.5827    1.3670 C   0  0  0  0  0  0  0  0  0  0  0  0
    4.1871   -3.2874    1.2619 C   0  0  0  0  0  0  0  0  0  0  0  0
    4.1501   -2.6588    0.0385 O   0  0  0  0  0  0  0  0  0  0  0  0
    3.6195   -1.3444   -0.0000 C   0  0  0  0  0  0  0  0  0  0  0  0
    2.0907   -1.4157    0.0000 C   0  0  2  0  0  0  0  0  0  0  0  0
    1.6352   -2.1631   -1.1769 N   0  0  0  0  0  0  0  0  0  0  0  0
    1.4860    0.0000    0.0000 C   0  0  0  0  0  0  0  0  0  0  0  0
    0.0000    0.0000    0.0000 C   0  0  0  0  0  0  0  0  0  0  0  0
   -0.7111    0.0000    1.2027 C   0  0  0  0  0  0  0  0  0  0  0  0
   -2.1138    0.0010    1.2110 C   0  0  0  0  0  0  0  0  0  0  0  0
   -2.8620   -0.0009    0.0236 C   0  0  0  0  0  0  0  0  0  0  0  0
   -2.1126   -0.0155   -1.1687 C   0  0  0  0  0  0  0  0  0  0  0  0
   -0.7114   -0.0194   -1.1991 C   0  0  0  0  0  0  0  0  0  0  0  0
    3.7136   -2.6311    2.4049 C   0  0  0  0  0  0  0  0  0  0  0  0
   -0.6028    1.0837    6.0775 H   0  0  0  0  0  0  0  0  0  0  0  0
   -0.6568   -0.2736    4.9280 H   0  0  0  0  0  0  0  0  0  0  0  0
    0.5126    1.0293    4.7039 H   0  0  0  0  0  0  0  0  0  0  0  0
    0.4896    0.4841    8.2209 H   0  0  0  0  0  0  0  0  0  0  0  0
    4.1397   -2.8170    8.2492 H   0  0  0  0  0  0  0  0  0  0  0  0
    4.7901   -3.7708    5.9955 H   0  0  0  0  0  0  0  0  0  0  0  0
    1.7988   -1.4852    3.8336 H   0  0  0  0  0  0  0  0  0  0  0  0
    4.4016   -5.1188    4.5842 H   0  0  0  0  0  0  0  0  0  0  0  0
    5.0676   -5.1261    0.5065 H   0  0  0  0  0  0  0  0  0  0  0  0
    3.9826   -0.8113    0.8849 H   0  0  0  0  0  0  0  0  0  0  0  0
    3.9986   -0.8421   -0.8966 H   0  0  0  0  0  0  0  0  0  0  0  0
    1.7660   -1.9628    0.8937 H   0  0  0  0  0  0  0  0  0  0  0  0
    1.8913   -1.6606   -2.0261 H   0  0  0  0  0  0  0  0  0  0  0  0
    0.6181   -2.2241   -1.1795 H   0  0  0  0  0  0  0  0  0  0  0  0
    1.8532    0.5669   -0.8660 H   0  0  0  0  0  0  0  0  0  0  0  0
    1.8259    0.5527    0.8857 H   0  0  0  0  0  0  0  0  0  0  0  0
   -0.1814   -0.0042    2.1525 H   0  0  0  0  0  0  0  0  0  0  0  0
   -2.6026   -0.0043    2.1820 H   0  0  0  0  0  0  0  0  0  0  0  0
   -3.9439   -0.0005    0.0237 H   0  0  0  0  0  0  0  0  0  0  0  0
   -2.6514   -0.0242   -2.1154 H   0  0  0  0  0  0  0  0  0  0  0  0
   -0.1765   -0.0317   -2.1459 H   0  0  0  0  0  0  0  0  0  0  0  0
    3.3085   -1.6272    2.3387 H   0  0  0  0  0  0  0  0  0  0  0  0
  1  2  1  0
  2  3  1  0
  3  4  1  0
  4  5  2  0
  5  6  1  0
  6  7  2  0
  7  8  1  0
  8  9  2  0
  9 10  1  0
  8 11  1  0
 11 12  2  0
 12 13  1  0
 13 14  2  0
 14 15  1  0
 15 16  1  0
 16 17  1  0
 17 18  1  0
 18 19  1  0
 18 20  1  0
 20 21  1  0
 21 22  2  0
 22 23  1  0
 23 24  2  0
 24 25  1  0
 25 26  2  0
 15 27  2  0
 10  2  2  0
 27 11  1  0
 10  5  1  0
 26 21  1  0
  1 28  1  0
  1 29  1  0
  1 30  1  0
  3 31  1  0
  6 32  1  0
  7 33  1  0
  9 34  1  0
 12 35  1  0
 14 36  1  0
 17 37  1  0
 17 38  1  0
 18 39  1  1
 19 40  1  0
 19 41  1  0
 20 42  1  0
 20 43  1  0
 22 44  1  0
 23 45  1  0
 24 46  1  0
 25 47  1  0
 26 48  1  0
 27 49  1  0
M  END
>  <_MoleculeID>  (114) 
smi12

>  <_InputIndex>  (114) 
12

>  <_InputSMILES>  (114) 
Cc1[nH]nc2ccc(cc12)-c1cncc(OC[C@@H](N)Cc2ccccc2)c1

>  <_InputInChIKey>  (114) 
BPNUQXPIQBZCMR-IBGZPJMESA-N

>  <_SMILES>  (114) 
Cc1[nH]nc2ccc(-c3cncc(OC[C@@H](N)Cc4ccccc4)c3)cc12

>  <_InChIKey>  (114) 
BPNUQXPIQBZCMR-IBGZPJMESA-N

$$$$
smi12_conf7
     RDKit          3D

 49 52  0  0  0  0  0  0  0  0999 V2000
   11.0455   -2.7336   -1.3949 C   0  0  0  0  0  0  0  0  0  0  0  0
   10.0285   -3.6916   -0.9345 C   0  0  0  0  0  0  0  0  0  0  0  0
   10.3519   -4.7858   -0.1633 N   0  0  0  0  0  0  0  0  0  0  0  0
    9.3011   -5.5644    0.1733 N   0  0  0  0  0  0  0  0  0  0  0  0
    8.2325   -4.9782   -0.3901 C   0  0  0  0  0  0  0  0  0  0  0  0
    6.8707   -5.3598   -0.3675 C   0  0  0  0  0  0  0  0  0  0  0  0
    6.0426   -4.4777   -1.1073 C   0  0  0  0  0  0  0  0  0  0  0  0
    6.5153   -3.3161   -1.7929 C   0  0  0  0  0  0  0  0  0  0  0  0
    7.8633   -2.9160   -1.8180 C   0  0  0  0  0  0  0  0  0  0  0  0
    8.6655   -3.7964   -1.0968 C   0  0  0  0  0  0  0  0  0  0  0  0
    5.5544   -2.5151   -2.4979 C   0  0  0  0  0  0  0  0  0  0  0  0
    5.9311   -1.8072   -3.6250 C   0  0  0  0  0  0  0  0  0  0  0  0
    5.0952   -1.0276   -4.3462 N   0  0  0  0  0  0  0  0  0  0  0  0
    3.8047   -0.9442   -3.9416 C   0  0  0  0  0  0  0  0  0  0  0  0
    3.3496   -1.6151   -2.8047 C   0  0  0  0  0  0  0  0  0  0  0  0
    2.0399   -1.4818   -2.4044 O   0  0  0  0  0  0  0  0  0  0  0  0
    1.6414   -2.1892   -1.2419 C   0  0  0  0  0  0  0  0  0  0  0  0
    2.0907   -1.4157    0.0000 C   0  0  2  0  0  0  0  0  0  0  0  0
    1.6806   -2.1437    1.2055 N   0  0  0  0  0  0  0  0  0  0  0  0
    1.4860    0.0000    0.0000 C   0  0  0  0  0  0  0  0  0  0  0  0
    0.0000    0.0000    0.0000 C   0  0  0  0  0  0  0  0  0  0  0  0
   -0.7111    0.0000    1.2027 C   0  0  0  0  0  0  0  0  0  0  0  0
   -2.1138    0.0010    1.2110 C   0  0  0  0  0  0  0  0  0  0  0  0
   -2.8620   -0.0009    0.0236 C   0  0  0  0  0  0  0  0  0  0  0  0
   -2.1126   -0.0155   -1.1687 C   0  0  0  0  0  0  0  0  0  0  0  0
   -0.7114   -0.0194   -1.1991 C   0  0  0  0  0  0  0  0  0  0  0  0
    4.2300   -2.4227   -2.0740 C   0  0  0  0  0  0  0  0  0  0  0  0
   12.0370   -3.0276   -1.0381 H   0  0  0  0  0  0  0  0  0  0  0  0
   10.8257   -1.7241   -1.0345 H   0  0  0  0  0  0  0  0  0  0  0  0
   11.0793   -2.6918   -2.4886 H   0  0  0  0  0  0  0  0  0  0  0  0
   11.2703   -5.0547    0.1662 H   0  0  0  0  0  0  0  0  0  0  0  0
    6.4922   -6.2339    0.1443 H   0  0  0  0  0  0  0  0  0  0  0  0
    4.9740   -4.6874   -1.1655 H   0  0  0  0  0  0  0  0  0  0  0  0
    8.2017   -2.0340   -2.3438 H   0  0  0  0  0  0  0  0  0  0  0  0
    6.9522   -1.8478   -3.9898 H   0  0  0  0  0  0  0  0  0  0  0  0
    3.1542   -0.3158   -4.5369 H   0  0  0  0  0  0  0  0  0  0  0  0
    0.5508   -2.2842   -1.2658 H   0  0  0  0  0  0  0  0  0  0  0  0
    2.0850   -3.1903   -1.2744 H   0  0  0  0  0  0  0  0  0  0  0  0
    3.1860   -1.3563   -0.0022 H   0  0  0  0  0  0  0  0  0  0  0  0
    0.6632   -2.1851    1.2551 H   0  0  0  0  0  0  0  0  0  0  0  0
    1.9848   -1.6404    2.0375 H   0  0  0  0  0  0  0  0  0  0  0  0
    1.8532    0.5669   -0.8660 H   0  0  0  0  0  0  0  0  0  0  0  0
    1.8259    0.5527    0.8857 H   0  0  0  0  0  0  0  0  0  0  0  0
   -0.1814   -0.0042    2.1525 H   0  0  0  0  0  0  0  0  0  0  0  0
   -2.6026   -0.0043    2.1820 H   0  0  0  0  0  0  0  0  0  0  0  0
   -3.9439   -0.0005    0.0237 H   0  0  0  0  0  0  0  0  0  0  0  0
   -2.6514   -0.0242   -2.1154 H   0  0  0  0  0  0  0  0  0  0  0  0
   -0.1765   -0.0317   -2.1459 H   0  0  0  0  0  0  0  0  0  0  0  0
    3.8903   -2.9549   -1.1921 H   0  0  0  0  0  0  0  0  0  0  0  0
  1  2  1  0
  2  3  1  0
  3  4  1  0
  4  5  2  0
  5  6  1  0
  6  7  2  0
  7  8  1  0
  8  9  2  0
  9 10  1  0
  8 11  1  0
 11 12  2  0
 12 13  1  0
 13 14  2  0
 14 15  1  0
 15 16  1  0
 16 17  1  0
 17 18  1  0
 18 19  1  0
 18 20  1  0
 20 21  1  0
 21 22  2  0
 22 23  1  0
 23 24  2  0
 24 25  1  0
 25 26  2  0
 15 27  2  0
 10  2  2  0
 27 11  1  0
 10  5  1  0
 26 21  1  0
  1 28  1  0
  1 29  1  0
  1 30  1  0
  3 31  1  0
  6 32  1  0
  7 33  1  0
  9 34  1  0
 12 35  1  0
 14 36  1  0
 17 37  1  0
 17 38  1  0
 18 39  1  6
 19 40  1  0
 19 41  1  0
 20 42  1  0
 20 43  1  0
 22 44  1  0
 23 45  1  0
 24 46  1  0
 25 47  1  0
 26 48  1  0
 27 49  1  0
M  END
>  <_MoleculeID>  (115) 
smi12

>  <_InputIndex>  (115) 
12

>  <_InputSMILES>  (115) 
Cc1[nH]nc2ccc(cc12)-c1cncc(OC[C@@H](N)Cc2ccccc2)c1

>  <_InputInChIKey>  (115) 
BPNUQXPIQBZCMR-IBGZPJMESA-N

>  <_SMILES>  (115) 
Cc1[nH]nc2ccc(-c3cncc(OC[C@@H](N)Cc4ccccc4)c3)cc12

>  <_InChIKey>  (115) 
BPNUQXPIQBZCMR-IBGZPJMESA-N

$$$$
smi12_conf8
     RDKit          3D

 49 52  0  0  0  0  0  0  0  0999 V2000
   13.1934   -0.6303   -0.0983 C   0  0  0  0  0  0  0  0  0  0  0  0
   12.0938    0.3468   -0.1101 C   0  0  0  0  0  0  0  0  0  0  0  0
   12.3234    1.7044   -0.1361 N   0  0  0  0  0  0  0  0  0  0  0  0
   11.2053    2.4617   -0.1435 N   0  0  0  0  0  0  0  0  0  0  0  0
   10.1864    1.5874   -0.1202 C   0  0  0  0  0  0  0  0  0  0  0  0
    8.7912    1.8195   -0.1147 C   0  0  0  0  0  0  0  0  0  0  0  0
    8.0368    0.6195   -0.0686 C   0  0  0  0  0  0  0  0  0  0  0  0
    8.6093   -0.6899   -0.0465 C   0  0  0  0  0  0  0  0  0  0  0  0
    9.9932   -0.9398   -0.0614 C   0  0  0  0  0  0  0  0  0  0  0  0
   10.7209    0.2468   -0.0962 C   0  0  0  0  0  0  0  0  0  0  0  0
    7.7154   -1.8129   -0.0039 C   0  0  0  0  0  0  0  0  0  0  0  0
    8.2172   -3.1017    0.0189 C   0  0  0  0  0  0  0  0  0  0  0  0
    7.4505   -4.2141    0.0557 N   0  0  0  0  0  0  0  0  0  0  0  0
    6.1054   -4.0521    0.0811 C   0  0  0  0  0  0  0  0  0  0  0  0
    5.5203   -2.7849    0.0439 C   0  0  0  0  0  0  0  0  0  0  0  0
    4.1501   -2.6588    0.0385 O   0  0  0  0  0  0  0  0  0  0  0  0
    3.6195   -1.3444   -0.0000 C   0  0  0  0  0  0  0  0  0  0  0  0
    2.0907   -1.4157    0.0000 C   0  0  2  0  0  0  0  0  0  0  0  0
    1.6352   -2.1631   -1.1769 N   0  0  0  0  0  0  0  0  0  0  0  0
    1.4860    0.0000    0.0000 C   0  0  0  0  0  0  0  0  0  0  0  0
    0.0000    0.0000    0.0000 C   0  0  0  0  0  0  0  0  0  0  0  0
   -0.7111    0.0000    1.2027 C   0  0  0  0  0  0  0  0  0  0  0  0
   -2.1138    0.0010    1.2110 C   0  0  0  0  0  0  0  0  0  0  0  0
   -2.8620   -0.0009    0.0236 C   0  0  0  0  0  0  0  0  0  0  0  0
   -2.1126   -0.0155   -1.1687 C   0  0  0  0  0  0  0  0  0  0  0  0
   -0.7114   -0.0194   -1.1991 C   0  0  0  0  0  0  0  0  0  0  0  0
    6.3321   -1.6441    0.0119 C   0  0  0  0  0  0  0  0  0  0  0  0
   14.1601   -0.1182   -0.1129 H   0  0  0  0  0  0  0  0  0  0  0  0
   13.1347   -1.2981   -0.9630 H   0  0  0  0  0  0  0  0  0  0  0  0
   13.1555   -1.2535    0.8012 H   0  0  0  0  0  0  0  0  0  0  0  0
   13.2192    2.1753   -0.1507 H   0  0  0  0  0  0  0  0  0  0  0  0
    8.3376    2.8008   -0.1309 H   0  0  0  0  0  0  0  0  0  0  0  0
    6.9485    0.6853   -0.0481 H   0  0  0  0  0  0  0  0  0  0  0  0
   10.4072   -1.9384   -0.0428 H   0  0  0  0  0  0  0  0  0  0  0  0
    9.2874   -3.2805    0.0055 H   0  0  0  0  0  0  0  0  0  0  0  0
    5.5129   -4.9578    0.1130 H   0  0  0  0  0  0  0  0  0  0  0  0
    3.9826   -0.8113    0.8849 H   0  0  0  0  0  0  0  0  0  0  0  0
    3.9986   -0.8421   -0.8966 H   0  0  0  0  0  0  0  0  0  0  0  0
    1.7660   -1.9628    0.8937 H   0  0  0  0  0  0  0  0  0  0  0  0
    1.8913   -1.6606   -2.0261 H   0  0  0  0  0  0  0  0  0  0  0  0
    0.6181   -2.2241   -1.1795 H   0  0  0  0  0  0  0  0  0  0  0  0
    1.8532    0.5669   -0.8660 H   0  0  0  0  0  0  0  0  0  0  0  0
    1.8259    0.5527    0.8857 H   0  0  0  0  0  0  0  0  0  0  0  0
   -0.1814   -0.0042    2.1525 H   0  0  0  0  0  0  0  0  0  0  0  0
   -2.6026   -0.0043    2.1820 H   0  0  0  0  0  0  0  0  0  0  0  0
   -3.9439   -0.0005    0.0237 H   0  0  0  0  0  0  0  0  0  0  0  0
   -2.6514   -0.0242   -2.1154 H   0  0  0  0  0  0  0  0  0  0  0  0
   -0.1765   -0.0317   -2.1459 H   0  0  0  0  0  0  0  0  0  0  0  0
    5.8928   -0.6527   -0.0113 H   0  0  0  0  0  0  0  0  0  0  0  0
  1  2  1  0
  2  3  1  0
  3  4  1  0
  4  5  2  0
  5  6  1  0
  6  7  2  0
  7  8  1  0
  8  9  2  0
  9 10  1  0
  8 11  1  0
 11 12  2  0
 12 13  1  0
 13 14  2  0
 14 15  1  0
 15 16  1  0
 16 17  1  0
 17 18  1  0
 18 19  1  0
 18 20  1  0
 20 21  1  0
 21 22  2  0
 22 23  1  0
 23 24  2  0
 24 25  1  0
 25 26  2  0
 15 27  2  0
 10  2  2  0
 27 11  1  0
 10  5  1  0
 26 21  1  0
  1 28  1  0
  1 29  1  0
  1 30  1  0
  3 31  1  0
  6 32  1  0
  7 33  1  0
  9 34  1  0
 12 35  1  0
 14 36  1  0
 17 37  1  0
 17 38  1  0
 18 39  1  1
 19 40  1  0
 19 41  1  0
 20 42  1  0
 20 43  1  0
 22 44  1  0
 23 45  1  0
 24 46  1  0
 25 47  1  0
 26 48  1  0
 27 49  1  0
M  END
>  <_MoleculeID>  (116) 
smi12

>  <_InputIndex>  (116) 
12

>  <_InputSMILES>  (116) 
Cc1[nH]nc2ccc(cc12)-c1cncc(OC[C@@H](N)Cc2ccccc2)c1

>  <_InputInChIKey>  (116) 
BPNUQXPIQBZCMR-IBGZPJMESA-N

>  <_SMILES>  (116) 
Cc1[nH]nc2ccc(-c3cncc(OC[C@@H](N)Cc4ccccc4)c3)cc12

>  <_InChIKey>  (116) 
BPNUQXPIQBZCMR-IBGZPJMESA-N

$$$$
smi12_conf9
     RDKit          3D

 49 52  0  0  0  0  0  0  0  0999 V2000
   -7.1685   -1.4910   -1.9935 C   0  0  0  0  0  0  0  0  0  0  0  0
   -6.9972   -2.7658   -2.7073 C   0  0  0  0  0  0  0  0  0  0  0  0
   -8.0715   -3.5296   -3.1063 N   0  0  0  0  0  0  0  0  0  0  0  0
   -7.7403   -4.6701   -3.7489 N   0  0  0  0  0  0  0  0  0  0  0  0
   -6.3980   -4.6786   -3.7842 C   0  0  0  0  0  0  0  0  0  0  0  0
   -5.5105   -5.6326   -4.3344 C   0  0  0  0  0  0  0  0  0  0  0  0
   -4.1483   -5.2833   -4.1500 C   0  0  0  0  0  0  0  0  0  0  0  0
   -3.7050   -4.0922   -3.4962 C   0  0  0  0  0  0  0  0  0  0  0  0
   -4.5726   -3.1284   -2.9522 C   0  0  0  0  0  0  0  0  0  0  0  0
   -5.9054   -3.4892   -3.1312 C   0  0  0  0  0  0  0  0  0  0  0  0
   -2.2900   -3.8724   -3.3885 C   0  0  0  0  0  0  0  0  0  0  0  0
   -1.4329   -4.3689   -4.3540 C   0  0  0  0  0  0  0  0  0  0  0  0
   -0.0907   -4.2123   -4.3304 N   0  0  0  0  0  0  0  0  0  0  0  0
    0.4446   -3.5161   -3.2985 C   0  0  0  0  0  0  0  0  0  0  0  0
   -0.3511   -2.9969   -2.2753 C   0  0  0  0  0  0  0  0  0  0  0  0
    0.2298   -2.3228   -1.2257 O   0  0  0  0  0  0  0  0  0  0  0  0
    1.6414   -2.1892   -1.2419 C   0  0  0  0  0  0  0  0  0  0  0  0
    2.0907   -1.4157    0.0000 C   0  0  2  0  0  0  0  0  0  0  0  0
    1.6806   -2.1437    1.2055 N   0  0  0  0  0  0  0  0  0  0  0  0
    1.4860    0.0000    0.0000 C   0  0  0  0  0  0  0  0  0  0  0  0
    0.0000    0.0000    0.0000 C   0  0  0  0  0  0  0  0  0  0  0  0
   -0.7111    0.0000    1.2027 C   0  0  0  0  0  0  0  0  0  0  0  0
   -2.1138    0.0010    1.2110 C   0  0  0  0  0  0  0  0  0  0  0  0
   -2.8620   -0.0009    0.0236 C   0  0  0  0  0  0  0  0  0  0  0  0
   -2.1126   -0.0155   -1.1687 C   0  0  0  0  0  0  0  0  0  0  0  0
   -0.7114   -0.0194   -1.1991 C   0  0  0  0  0  0  0  0  0  0  0  0
   -1.7407   -3.1648   -2.3209 C   0  0  0  0  0  0  0  0  0  0  0  0
   -8.2308   -1.2745   -1.8471 H   0  0  0  0  0  0  0  0  0  0  0  0
   -6.7133   -0.6656   -2.5491 H   0  0  0  0  0  0  0  0  0  0  0  0
   -6.6925   -1.5256   -1.0079 H   0  0  0  0  0  0  0  0  0  0  0  0
   -9.0536   -3.3260   -2.9704 H   0  0  0  0  0  0  0  0  0  0  0  0
   -5.8244   -6.5394   -4.8325 H   0  0  0  0  0  0  0  0  0  0  0  0
   -3.3789   -5.9582   -4.5263 H   0  0  0  0  0  0  0  0  0  0  0  0
   -4.2175   -2.2336   -2.4598 H   0  0  0  0  0  0  0  0  0  0  0  0
   -1.8163   -4.9277   -5.2015 H   0  0  0  0  0  0  0  0  0  0  0  0
    1.5213   -3.4019   -3.3032 H   0  0  0  0  0  0  0  0  0  0  0  0
    2.0723   -3.1958   -1.2484 H   0  0  0  0  0  0  0  0  0  0  0  0
    1.9317   -1.6735   -2.1637 H   0  0  0  0  0  0  0  0  0  0  0  0
    3.1860   -1.3563   -0.0022 H   0  0  0  0  0  0  0  0  0  0  0  0
    0.6632   -2.1851    1.2551 H   0  0  0  0  0  0  0  0  0  0  0  0
    1.9848   -1.6404    2.0375 H   0  0  0  0  0  0  0  0  0  0  0  0
    1.8532    0.5669   -0.8660 H   0  0  0  0  0  0  0  0  0  0  0  0
    1.8259    0.5527    0.8857 H   0  0  0  0  0  0  0  0  0  0  0  0
   -0.1814   -0.0042    2.1525 H   0  0  0  0  0  0  0  0  0  0  0  0
   -2.6026   -0.0043    2.1820 H   0  0  0  0  0  0  0  0  0  0  0  0
   -3.9439   -0.0005    0.0237 H   0  0  0  0  0  0  0  0  0  0  0  0
   -2.6514   -0.0242   -2.1154 H   0  0  0  0  0  0  0  0  0  0  0  0
   -0.1765   -0.0317   -2.1459 H   0  0  0  0  0  0  0  0  0  0  0  0
   -2.3729   -2.7623   -1.5368 H   0  0  0  0  0  0  0  0  0  0  0  0
  1  2  1  0
  2  3  1  0
  3  4  1  0
  4  5  2  0
  5  6  1  0
  6  7  2  0
  7  8  1  0
  8  9  2  0
  9 10  1  0
  8 11  1  0
 11 12  2  0
 12 13  1  0
 13 14  2  0
 14 15  1  0
 15 16  1  0
 16 17  1  0
 17 18  1  0
 18 19  1  0
 18 20  1  0
 20 21  1  0
 21 22  2  0
 22 23  1  0
 23 24  2  0
 24 25  1  0
 25 26  2  0
 15 27  2  0
 10  2  2  0
 27 11  1  0
 10  5  1  0
 26 21  1  0
  1 28  1  0
  1 29  1  0
  1 30  1  0
  3 31  1  0
  6 32  1  0
  7 33  1  0
  9 34  1  0
 12 35  1  0
 14 36  1  0
 17 37  1  0
 17 38  1  0
 18 39  1  6
 19 40  1  0
 19 41  1  0
 20 42  1  0
 20 43  1  0
 22 44  1  0
 23 45  1  0
 24 46  1  0
 25 47  1  0
 26 48  1  0
 27 49  1  0
M  END
>  <_MoleculeID>  (117) 
smi12

>  <_InputIndex>  (117) 
12

>  <_InputSMILES>  (117) 
Cc1[nH]nc2ccc(cc12)-c1cncc(OC[C@@H](N)Cc2ccccc2)c1

>  <_InputInChIKey>  (117) 
BPNUQXPIQBZCMR-IBGZPJMESA-N

>  <_SMILES>  (117) 
Cc1[nH]nc2ccc(-c3cncc(OC[C@@H](N)Cc4ccccc4)c3)cc12

>  <_InChIKey>  (117) 
BPNUQXPIQBZCMR-IBGZPJMESA-N

$$$$
smi13_conf0
     RDKit          3D

 55 56  0  0  0  0  0  0  0  0999 V2000
   11.6994   -0.0000   -7.4802 N   0  0  0  0  0  0  0  0  0  0  0  0
   10.2440   -0.0000   -7.3624 C   0  0  0  0  0  0  0  0  0  0  0  0
    9.6835   -0.0000   -5.9359 C   0  0  0  0  0  0  0  0  0  0  0  0
    8.1548   -0.0000   -5.8888 C   0  0  0  0  0  0  0  0  0  0  0  0
    7.6406   -0.0000   -4.4479 C   0  0  0  0  0  0  0  0  0  0  0  0
    6.1111   -0.0000   -4.4070 C   0  0  0  0  0  0  0  0  0  0  0  0
    5.5428   -0.0000   -2.9855 C   0  0  0  0  0  0  0  0  0  0  0  0
    4.0135   -0.0000   -2.9400 C   0  0  0  0  0  0  0  0  0  0  0  0
    3.5052   -0.0000   -1.4966 C   0  0  0  0  0  0  0  0  0  0  0  0
    1.9772   -0.0000   -1.4428 C   0  0  0  0  0  0  0  0  0  0  0  0
    1.4720   -0.0000    0.0000 C   0  0  0  0  0  0  0  0  0  0  0  0
    0.0000   -0.0000    0.0000 N   0  0  0  0  0  0  0  0  0  0  0  0
   -0.8801    0.0000    1.4527 S   0  0  0  0  0  6  0  0  0  0  0  0
   -2.2673    0.3293    1.1875 O   0  0  0  0  0  0  0  0  0  0  0  0
   -0.1348    0.7373    2.4552 O   0  0  0  0  0  0  0  0  0  0  0  0
   -0.8027   -1.7091    1.9065 C   0  0  0  0  0  0  0  0  0  0  0  0
   -0.0115   -2.1107    2.9850 C   0  0  0  0  0  0  0  0  0  0  0  0
    0.0626   -3.4458    3.3649 C   0  0  0  0  0  0  0  0  0  0  0  0
   -0.6498   -4.3987    2.6370 C   0  0  0  0  0  0  0  0  0  0  0  0
   -1.4325   -4.0255    1.5309 C   0  0  0  0  0  0  0  0  0  0  0  0
   -2.1354   -4.9775    0.7801 C   0  0  0  0  0  0  0  0  0  0  0  0
   -2.0673   -6.6459    1.1968 Cl  0  0  0  0  0  0  0  0  0  0  0  0
   -2.8994   -4.5914   -0.3222 C   0  0  0  0  0  0  0  0  0  0  0  0
   -2.9792   -3.2484   -0.6968 C   0  0  0  0  0  0  0  0  0  0  0  0
   -2.2870   -2.2891    0.0479 C   0  0  0  0  0  0  0  0  0  0  0  0
   -1.5113   -2.6628    1.1608 C   0  0  0  0  0  0  0  0  0  0  0  0
   12.0835   -0.7754   -6.9410 H   0  0  0  0  0  0  0  0  0  0  0  0
   12.0689    0.8466   -7.0487 H   0  0  0  0  0  0  0  0  0  0  0  0
    9.9217   -0.9421   -7.8249 H   0  0  0  0  0  0  0  0  0  0  0  0
    9.7779    0.7755   -7.9782 H   0  0  0  0  0  0  0  0  0  0  0  0
   10.0970    0.8360   -5.3613 H   0  0  0  0  0  0  0  0  0  0  0  0
   10.0343   -0.9070   -5.4257 H   0  0  0  0  0  0  0  0  0  0  0  0
    7.7783   -0.8864   -6.4143 H   0  0  0  0  0  0  0  0  0  0  0  0
    7.7493    0.8641   -6.4165 H   0  0  0  0  0  0  0  0  0  0  0  0
    8.0180    0.8865   -3.9244 H   0  0  0  0  0  0  0  0  0  0  0  0
    8.0342   -0.8792   -3.9258 H   0  0  0  0  0  0  0  0  0  0  0  0
    5.7252   -0.8646   -4.9606 H   0  0  0  0  0  0  0  0  0  0  0  0
    5.7385    0.8956   -4.9200 H   0  0  0  0  0  0  0  0  0  0  0  0
    5.9159    0.8930   -2.4687 H   0  0  0  0  0  0  0  0  0  0  0  0
    5.9305   -0.8666   -2.4359 H   0  0  0  0  0  0  0  0  0  0  0  0
    3.6211   -0.8827   -3.4570 H   0  0  0  0  0  0  0  0  0  0  0  0
    3.6301    0.8831   -3.4652 H   0  0  0  0  0  0  0  0  0  0  0  0
    3.8901    0.8825   -0.9710 H   0  0  0  0  0  0  0  0  0  0  0  0
    3.8913   -0.8828   -0.9724 H   0  0  0  0  0  0  0  0  0  0  0  0
    1.5880   -0.8802   -1.9699 H   0  0  0  0  0  0  0  0  0  0  0  0
    1.5881    0.8806   -1.9692 H   0  0  0  0  0  0  0  0  0  0  0  0
    1.8723    0.8746    0.5241 H   0  0  0  0  0  0  0  0  0  0  0  0
    1.8388   -0.8927    0.5208 H   0  0  0  0  0  0  0  0  0  0  0  0
   -0.4789   -0.1271   -0.8995 H   0  0  0  0  0  0  0  0  0  0  0  0
    0.5455   -1.3635    3.5447 H   0  0  0  0  0  0  0  0  0  0  0  0
    0.6680   -3.7704    4.2049 H   0  0  0  0  0  0  0  0  0  0  0  0
   -0.5804   -5.4430    2.9355 H   0  0  0  0  0  0  0  0  0  0  0  0
   -3.4321   -5.3514   -0.8890 H   0  0  0  0  0  0  0  0  0  0  0  0
   -3.5734   -2.9521   -1.5553 H   0  0  0  0  0  0  0  0  0  0  0  0
   -2.3321   -1.2368   -0.2225 H   0  0  0  0  0  0  0  0  0  0  0  0
  1  2  1  0
  2  3  1  0
  3  4  1  0
  4  5  1  0
  5  6  1  0
  6  7  1  0
  7  8  1  0
  8  9  1  0
  9 10  1  0
 10 11  1  0
 11 12  1  0
 12 13  1  0
 13 14  2  0
 13 15  2  0
 13 16  1  0
 16 17  2  0
 17 18  1  0
 18 19  2  0
 19 20  1  0
 20 21  2  0
 21 22  1  0
 21 23  1  0
 23 24  2  0
 24 25  1  0
 25 26  2  0
 26 16  1  0
 26 20  1  0
  1 27  1  0
  1 28  1  0
  2 29  1  0
  2 30  1  0
  3 31  1  0
  3 32  1  0
  4 33  1  0
  4 34  1  0
  5 35  1  0
  5 36  1  0
  6 37  1  0
  6 38  1  0
  7 39  1  0
  7 40  1  0
  8 41  1  0
  8 42  1  0
  9 43  1  0
  9 44  1  0
 10 45  1  0
 10 46  1  0
 11 47  1  0
 11 48  1  0
 12 49  1  0
 17 50  1  0
 18 51  1  0
 19 52  1  0
 23 53  1  0
 24 54  1  0
 25 55  1  0
M  END
>  <_MoleculeID>  (118) 
smi13

>  <_InputIndex>  (118) 
13

>  <_InputSMILES>  (118) 
NCCCCCCCCCCNS(=O)(=O)c1cccc2c(Cl)cccc12

>  <_InputInChIKey>  (118) 
JLUUJHIQVIXTGT-UHFFFAOYSA-N

>  <_SMILES>  (118) 
NCCCCCCCCCCNS(=O)(=O)c1cccc2c(Cl)cccc12

>  <_InChIKey>  (118) 
JLUUJHIQVIXTGT-UHFFFAOYSA-N

$$$$
smi13_conf1
     RDKit          3D

 55 56  0  0  0  0  0  0  0  0999 V2000
   11.6994   -7.4802    0.0000 N   0  0  0  0  0  0  0  0  0  0  0  0
   10.2440   -7.3624    0.0000 C   0  0  0  0  0  0  0  0  0  0  0  0
    9.6835   -5.9359    0.0000 C   0  0  0  0  0  0  0  0  0  0  0  0
    8.1548   -5.8888    0.0000 C   0  0  0  0  0  0  0  0  0  0  0  0
    7.6406   -4.4479    0.0000 C   0  0  0  0  0  0  0  0  0  0  0  0
    6.1111   -4.4070    0.0000 C   0  0  0  0  0  0  0  0  0  0  0  0
    5.5428   -2.9855    0.0000 C   0  0  0  0  0  0  0  0  0  0  0  0
    4.0135   -2.9400    0.0000 C   0  0  0  0  0  0  0  0  0  0  0  0
    3.5052   -1.4966   -0.0000 C   0  0  0  0  0  0  0  0  0  0  0  0
    1.9772   -1.4428    0.0000 C   0  0  0  0  0  0  0  0  0  0  0  0
    1.4720    0.0000    0.0000 C   0  0  0  0  0  0  0  0  0  0  0  0
    0.0000    0.0000    0.0000 N   0  0  0  0  0  0  0  0  0  0  0  0
   -0.8801    0.0000    1.4527 S   0  0  0  0  0  6  0  0  0  0  0  0
   -0.1673   -0.7623    2.4597 O   0  0  0  0  0  0  0  0  0  0  0  0
   -2.2698   -0.2972    1.1617 O   0  0  0  0  0  0  0  0  0  0  0  0
   -0.8027    1.7091    1.9065 C   0  0  0  0  0  0  0  0  0  0  0  0
   -0.0950    2.6123    1.1102 C   0  0  0  0  0  0  0  0  0  0  0  0
   -0.0232    3.9604    1.4416 C   0  0  0  0  0  0  0  0  0  0  0  0
   -0.6513    4.4076    2.6039 C   0  0  0  0  0  0  0  0  0  0  0  0
   -1.3475    3.5155    3.4373 C   0  0  0  0  0  0  0  0  0  0  0  0
   -1.9643    3.9507    4.6182 C   0  0  0  0  0  0  0  0  0  0  0  0
   -1.8940    5.6058    5.0845 Cl  0  0  0  0  0  0  0  0  0  0  0  0
   -2.6425    3.0497    5.4404 C   0  0  0  0  0  0  0  0  0  0  0  0
   -2.7207    1.6973    5.1010 C   0  0  0  0  0  0  0  0  0  0  0  0
   -2.1143    1.2525    3.9227 C   0  0  0  0  0  0  0  0  0  0  0  0
   -1.4256    2.1482    3.0841 C   0  0  0  0  0  0  0  0  0  0  0  0
   12.0835   -6.9410    0.7754 H   0  0  0  0  0  0  0  0  0  0  0  0
   12.0689   -7.0487   -0.8466 H   0  0  0  0  0  0  0  0  0  0  0  0
    9.9217   -7.8249    0.9421 H   0  0  0  0  0  0  0  0  0  0  0  0
    9.7779   -7.9782   -0.7755 H   0  0  0  0  0  0  0  0  0  0  0  0
   10.0970   -5.3613   -0.8360 H   0  0  0  0  0  0  0  0  0  0  0  0
   10.0343   -5.4257    0.9070 H   0  0  0  0  0  0  0  0  0  0  0  0
    7.7783   -6.4143    0.8864 H   0  0  0  0  0  0  0  0  0  0  0  0
    7.7493   -6.4165   -0.8641 H   0  0  0  0  0  0  0  0  0  0  0  0
    8.0180   -3.9244   -0.8865 H   0  0  0  0  0  0  0  0  0  0  0  0
    8.0342   -3.9258    0.8792 H   0  0  0  0  0  0  0  0  0  0  0  0
    5.7252   -4.9606    0.8646 H   0  0  0  0  0  0  0  0  0  0  0  0
    5.7385   -4.9200   -0.8956 H   0  0  0  0  0  0  0  0  0  0  0  0
    5.9159   -2.4687   -0.8930 H   0  0  0  0  0  0  0  0  0  0  0  0
    5.9305   -2.4359    0.8666 H   0  0  0  0  0  0  0  0  0  0  0  0
    3.6211   -3.4570    0.8827 H   0  0  0  0  0  0  0  0  0  0  0  0
    3.6301   -3.4652   -0.8831 H   0  0  0  0  0  0  0  0  0  0  0  0
    3.8901   -0.9710   -0.8825 H   0  0  0  0  0  0  0  0  0  0  0  0
    3.8913   -0.9724    0.8828 H   0  0  0  0  0  0  0  0  0  0  0  0
    1.5880   -1.9699    0.8802 H   0  0  0  0  0  0  0  0  0  0  0  0
    1.5881   -1.9692   -0.8806 H   0  0  0  0  0  0  0  0  0  0  0  0
    1.8723    0.5241   -0.8746 H   0  0  0  0  0  0  0  0  0  0  0  0
    1.8388    0.5208    0.8927 H   0  0  0  0  0  0  0  0  0  0  0  0
   -0.4789   -0.1271   -0.8995 H   0  0  0  0  0  0  0  0  0  0  0  0
    0.3968    2.2561    0.2085 H   0  0  0  0  0  0  0  0  0  0  0  0
    0.5175    4.6738    0.8282 H   0  0  0  0  0  0  0  0  0  0  0  0
   -0.5837    5.4629    2.8610 H   0  0  0  0  0  0  0  0  0  0  0  0
   -3.1093    3.4140    6.3526 H   0  0  0  0  0  0  0  0  0  0  0  0
   -3.2480    0.9994    5.7434 H   0  0  0  0  0  0  0  0  0  0  0  0
   -2.1602    0.2047    3.6353 H   0  0  0  0  0  0  0  0  0  0  0  0
  1  2  1  0
  2  3  1  0
  3  4  1  0
  4  5  1  0
  5  6  1  0
  6  7  1  0
  7  8  1  0
  8  9  1  0
  9 10  1  0
 10 11  1  0
 11 12  1  0
 12 13  1  0
 13 14  2  0
 13 15  2  0
 13 16  1  0
 16 17  2  0
 17 18  1  0
 18 19  2  0
 19 20  1  0
 20 21  2  0
 21 22  1  0
 21 23  1  0
 23 24  2  0
 24 25  1  0
 25 26  2  0
 26 16  1  0
 26 20  1  0
  1 27  1  0
  1 28  1  0
  2 29  1  0
  2 30  1  0
  3 31  1  0
  3 32  1  0
  4 33  1  0
  4 34  1  0
  5 35  1  0
  5 36  1  0
  6 37  1  0
  6 38  1  0
  7 39  1  0
  7 40  1  0
  8 41  1  0
  8 42  1  0
  9 43  1  0
  9 44  1  0
 10 45  1  0
 10 46  1  0
 11 47  1  0
 11 48  1  0
 12 49  1  0
 17 50  1  0
 18 51  1  0
 19 52  1  0
 23 53  1  0
 24 54  1  0
 25 55  1  0
M  END
>  <_MoleculeID>  (119) 
smi13

>  <_InputIndex>  (119) 
13

>  <_InputSMILES>  (119) 
NCCCCCCCCCCNS(=O)(=O)c1cccc2c(Cl)cccc12

>  <_InputInChIKey>  (119) 
JLUUJHIQVIXTGT-UHFFFAOYSA-N

>  <_SMILES>  (119) 
NCCCCCCCCCCNS(=O)(=O)c1cccc2c(Cl)cccc12

>  <_InChIKey>  (119) 
JLUUJHIQVIXTGT-UHFFFAOYSA-N

$$$$
smi13_conf2
     RDKit          3D

 55 56  0  0  0  0  0  0  0  0999 V2000
    7.8829   -2.3704   -8.9933 N   0  0  0  0  0  0  0  0  0  0  0  0
    6.4265   -2.3736   -8.8883 C   0  0  0  0  0  0  0  0  0  0  0  0
    5.8534   -2.3814   -7.4668 C   0  0  0  0  0  0  0  0  0  0  0  0
    6.2776   -1.1672   -6.6392 C   0  0  0  0  0  0  0  0  0  0  0  0
    5.6835   -1.2169   -5.2302 C   0  0  0  0  0  0  0  0  0  0  0  0
    6.1111   -0.0000   -4.4070 C   0  0  0  0  0  0  0  0  0  0  0  0
    5.5428   -0.0000   -2.9855 C   0  0  0  0  0  0  0  0  0  0  0  0
    4.0135   -0.0000   -2.9400 C   0  0  0  0  0  0  0  0  0  0  0  0
    3.5052   -0.0000   -1.4966 C   0  0  0  0  0  0  0  0  0  0  0  0
    1.9772   -0.0000   -1.4428 C   0  0  0  0  0  0  0  0  0  0  0  0
    1.4720   -0.0000    0.0000 C   0  0  0  0  0  0  0  0  0  0  0  0
    0.0000   -0.0000    0.0000 N   0  0  0  0  0  0  0  0  0  0  0  0
   -0.8801    0.0000    1.4527 S   0  0  0  0  0  6  0  0  0  0  0  0
   -2.2673    0.3293    1.1875 O   0  0  0  0  0  0  0  0  0  0  0  0
   -0.1348    0.7373    2.4552 O   0  0  0  0  0  0  0  0  0  0  0  0
   -0.8027   -1.7091    1.9065 C   0  0  0  0  0  0  0  0  0  0  0  0
   -0.0115   -2.1107    2.9850 C   0  0  0  0  0  0  0  0  0  0  0  0
    0.0626   -3.4458    3.3649 C   0  0  0  0  0  0  0  0  0  0  0  0
   -0.6498   -4.3987    2.6370 C   0  0  0  0  0  0  0  0  0  0  0  0
   -1.4325   -4.0255    1.5309 C   0  0  0  0  0  0  0  0  0  0  0  0
   -2.1354   -4.9775    0.7801 C   0  0  0  0  0  0  0  0  0  0  0  0
   -2.0673   -6.6459    1.1968 Cl  0  0  0  0  0  0  0  0  0  0  0  0
   -2.8994   -4.5914   -0.3222 C   0  0  0  0  0  0  0  0  0  0  0  0
   -2.9792   -3.2484   -0.6968 C   0  0  0  0  0  0  0  0  0  0  0  0
   -2.2870   -2.2891    0.0479 C   0  0  0  0  0  0  0  0  0  0  0  0
   -1.5113   -2.6628    1.1608 C   0  0  0  0  0  0  0  0  0  0  0  0
    8.2636   -3.1476   -8.4544 H   0  0  0  0  0  0  0  0  0  0  0  0
    8.2469   -1.5252   -8.5546 H   0  0  0  0  0  0  0  0  0  0  0  0
    6.1101   -3.3141   -9.3581 H   0  0  0  0  0  0  0  0  0  0  0  0
    5.9643   -1.5961   -9.5046 H   0  0  0  0  0  0  0  0  0  0  0  0
    6.1074   -3.3166   -6.9560 H   0  0  0  0  0  0  0  0  0  0  0  0
    4.7574   -2.3740   -7.5350 H   0  0  0  0  0  0  0  0  0  0  0  0
    5.9469   -0.2523   -7.1464 H   0  0  0  0  0  0  0  0  0  0  0  0
    7.3642   -1.1035   -6.5705 H   0  0  0  0  0  0  0  0  0  0  0  0
    6.0151   -2.1319   -4.7250 H   0  0  0  0  0  0  0  0  0  0  0  0
    4.5911   -1.2616   -5.3021 H   0  0  0  0  0  0  0  0  0  0  0  0
    5.8152    0.9205   -4.9247 H   0  0  0  0  0  0  0  0  0  0  0  0
    7.2058    0.0167   -4.3336 H   0  0  0  0  0  0  0  0  0  0  0  0
    5.9159    0.8930   -2.4687 H   0  0  0  0  0  0  0  0  0  0  0  0
    5.9305   -0.8666   -2.4359 H   0  0  0  0  0  0  0  0  0  0  0  0
    3.6211   -0.8827   -3.4570 H   0  0  0  0  0  0  0  0  0  0  0  0
    3.6301    0.8831   -3.4652 H   0  0  0  0  0  0  0  0  0  0  0  0
    3.8901    0.8825   -0.9710 H   0  0  0  0  0  0  0  0  0  0  0  0
    3.8913   -0.8828   -0.9724 H   0  0  0  0  0  0  0  0  0  0  0  0
    1.5880   -0.8802   -1.9699 H   0  0  0  0  0  0  0  0  0  0  0  0
    1.5881    0.8806   -1.9692 H   0  0  0  0  0  0  0  0  0  0  0  0
    1.8723    0.8746    0.5241 H   0  0  0  0  0  0  0  0  0  0  0  0
    1.8388   -0.8927    0.5208 H   0  0  0  0  0  0  0  0  0  0  0  0
   -0.4789   -0.1271   -0.8995 H   0  0  0  0  0  0  0  0  0  0  0  0
    0.5455   -1.3635    3.5447 H   0  0  0  0  0  0  0  0  0  0  0  0
    0.6680   -3.7704    4.2049 H   0  0  0  0  0  0  0  0  0  0  0  0
   -0.5804   -5.4430    2.9355 H   0  0  0  0  0  0  0  0  0  0  0  0
   -3.4321   -5.3514   -0.8890 H   0  0  0  0  0  0  0  0  0  0  0  0
   -3.5734   -2.9521   -1.5553 H   0  0  0  0  0  0  0  0  0  0  0  0
   -2.3321   -1.2368   -0.2225 H   0  0  0  0  0  0  0  0  0  0  0  0
  1  2  1  0
  2  3  1  0
  3  4  1  0
  4  5  1  0
  5  6  1  0
  6  7  1  0
  7  8  1  0
  8  9  1  0
  9 10  1  0
 10 11  1  0
 11 12  1  0
 12 13  1  0
 13 14  2  0
 13 15  2  0
 13 16  1  0
 16 17  2  0
 17 18  1  0
 18 19  2  0
 19 20  1  0
 20 21  2  0
 21 22  1  0
 21 23  1  0
 23 24  2  0
 24 25  1  0
 25 26  2  0
 26 16  1  0
 26 20  1  0
  1 27  1  0
  1 28  1  0
  2 29  1  0
  2 30  1  0
  3 31  1  0
  3 32  1  0
  4 33  1  0
  4 34  1  0
  5 35  1  0
  5 36  1  0
  6 37  1  0
  6 38  1  0
  7 39  1  0
  7 40  1  0
  8 41  1  0
  8 42  1  0
  9 43  1  0
  9 44  1  0
 10 45  1  0
 10 46  1  0
 11 47  1  0
 11 48  1  0
 12 49  1  0
 17 50  1  0
 18 51  1  0
 19 52  1  0
 23 53  1  0
 24 54  1  0
 25 55  1  0
M  END
>  <_MoleculeID>  (120) 
smi13

>  <_InputIndex>  (120) 
13

>  <_InputSMILES>  (120) 
NCCCCCCCCCCNS(=O)(=O)c1cccc2c(Cl)cccc12

>  <_InputInChIKey>  (120) 
JLUUJHIQVIXTGT-UHFFFAOYSA-N

>  <_SMILES>  (120) 
NCCCCCCCCCCNS(=O)(=O)c1cccc2c(Cl)cccc12

>  <_InChIKey>  (120) 
JLUUJHIQVIXTGT-UHFFFAOYSA-N

$$$$
smi13_conf3
     RDKit          3D

 55 56  0  0  0  0  0  0  0  0999 V2000
    6.0604    9.7342    3.5061 N   0  0  0  0  0  0  0  0  0  0  0  0
    6.4265    8.8883    2.3736 C   0  0  0  0  0  0  0  0  0  0  0  0
    5.8534    7.4668    2.3814 C   0  0  0  0  0  0  0  0  0  0  0  0
    6.2776    6.6392    1.1672 C   0  0  0  0  0  0  0  0  0  0  0  0
    5.6835    5.2302    1.2169 C   0  0  0  0  0  0  0  0  0  0  0  0
    6.1111    4.4070   -0.0000 C   0  0  0  0  0  0  0  0  0  0  0  0
    5.5428    2.9855   -0.0000 C   0  0  0  0  0  0  0  0  0  0  0  0
    4.0135    2.9400   -0.0000 C   0  0  0  0  0  0  0  0  0  0  0  0
    3.5052    1.4966   -0.0000 C   0  0  0  0  0  0  0  0  0  0  0  0
    1.9772    1.4428   -0.0000 C   0  0  0  0  0  0  0  0  0  0  0  0
    1.4720    0.0000   -0.0000 C   0  0  0  0  0  0  0  0  0  0  0  0
    0.0000   -0.0000    0.0000 N   0  0  0  0  0  0  0  0  0  0  0  0
   -0.8801    0.0000    1.4527 S   0  0  0  0  0  6  0  0  0  0  0  0
   -2.2673    0.3293    1.1875 O   0  0  0  0  0  0  0  0  0  0  0  0
   -0.1348    0.7373    2.4552 O   0  0  0  0  0  0  0  0  0  0  0  0
   -0.8027   -1.7091    1.9065 C   0  0  0  0  0  0  0  0  0  0  0  0
   -0.0115   -2.1107    2.9850 C   0  0  0  0  0  0  0  0  0  0  0  0
    0.0626   -3.4458    3.3649 C   0  0  0  0  0  0  0  0  0  0  0  0
   -0.6498   -4.3987    2.6370 C   0  0  0  0  0  0  0  0  0  0  0  0
   -1.4325   -4.0255    1.5309 C   0  0  0  0  0  0  0  0  0  0  0  0
   -2.1354   -4.9775    0.7801 C   0  0  0  0  0  0  0  0  0  0  0  0
   -2.0673   -6.6459    1.1968 Cl  0  0  0  0  0  0  0  0  0  0  0  0
   -2.8994   -4.5914   -0.3222 C   0  0  0  0  0  0  0  0  0  0  0  0
   -2.9792   -3.2484   -0.6968 C   0  0  0  0  0  0  0  0  0  0  0  0
   -2.2870   -2.2891    0.0479 C   0  0  0  0  0  0  0  0  0  0  0  0
   -1.5113   -2.6628    1.1608 C   0  0  0  0  0  0  0  0  0  0  0  0
    6.2925    9.2557    4.3760 H   0  0  0  0  0  0  0  0  0  0  0  0
    5.0482    9.8550    3.5187 H   0  0  0  0  0  0  0  0  0  0  0  0
    7.5177    8.7858    2.4368 H   0  0  0  0  0  0  0  0  0  0  0  0
    6.2580    9.3852    1.4130 H   0  0  0  0  0  0  0  0  0  0  0  0
    4.7628    7.4935    2.4806 H   0  0  0  0  0  0  0  0  0  0  0  0
    6.2162    6.9519    3.2810 H   0  0  0  0  0  0  0  0  0  0  0  0
    7.3725    6.5765    1.1387 H   0  0  0  0  0  0  0  0  0  0  0  0
    5.9745    7.1260    0.2394 H   0  0  0  0  0  0  0  0  0  0  0  0
    4.5892    5.2949    1.2453 H   0  0  0  0  0  0  0  0  0  0  0  0
    6.0051    4.7368    2.1408 H   0  0  0  0  0  0  0  0  0  0  0  0
    7.2057    4.3689   -0.0560 H   0  0  0  0  0  0  0  0  0  0  0  0
    5.7654    4.9093   -0.9123 H   0  0  0  0  0  0  0  0  0  0  0  0
    5.9159    2.4687    0.8930 H   0  0  0  0  0  0  0  0  0  0  0  0
    5.9305    2.4359   -0.8666 H   0  0  0  0  0  0  0  0  0  0  0  0
    3.6211    3.4570   -0.8827 H   0  0  0  0  0  0  0  0  0  0  0  0
    3.6301    3.4652    0.8831 H   0  0  0  0  0  0  0  0  0  0  0  0
    3.8901    0.9710    0.8825 H   0  0  0  0  0  0  0  0  0  0  0  0
    3.8913    0.9724   -0.8828 H   0  0  0  0  0  0  0  0  0  0  0  0
    1.5880    1.9699   -0.8802 H   0  0  0  0  0  0  0  0  0  0  0  0
    1.5881    1.9692    0.8806 H   0  0  0  0  0  0  0  0  0  0  0  0
    1.8723   -0.5241    0.8746 H   0  0  0  0  0  0  0  0  0  0  0  0
    1.8388   -0.5208   -0.8927 H   0  0  0  0  0  0  0  0  0  0  0  0
   -0.4789   -0.1271   -0.8995 H   0  0  0  0  0  0  0  0  0  0  0  0
    0.5455   -1.3635    3.5447 H   0  0  0  0  0  0  0  0  0  0  0  0
    0.6680   -3.7704    4.2049 H   0  0  0  0  0  0  0  0  0  0  0  0
   -0.5804   -5.4430    2.9355 H   0  0  0  0  0  0  0  0  0  0  0  0
   -3.4321   -5.3514   -0.8890 H   0  0  0  0  0  0  0  0  0  0  0  0
   -3.5734   -2.9521   -1.5553 H   0  0  0  0  0  0  0  0  0  0  0  0
   -2.3321   -1.2368   -0.2225 H   0  0  0  0  0  0  0  0  0  0  0  0
  1  2  1  0
  2  3  1  0
  3  4  1  0
  4  5  1  0
  5  6  1  0
  6  7  1  0
  7  8  1  0
  8  9  1  0
  9 10  1  0
 10 11  1  0
 11 12  1  0
 12 13  1  0
 13 14  2  0
 13 15  2  0
 13 16  1  0
 16 17  2  0
 17 18  1  0
 18 19  2  0
 19 20  1  0
 20 21  2  0
 21 22  1  0
 21 23  1  0
 23 24  2  0
 24 25  1  0
 25 26  2  0
 26 16  1  0
 26 20  1  0
  1 27  1  0
  1 28  1  0
  2 29  1  0
  2 30  1  0
  3 31  1  0
  3 32  1  0
  4 33  1  0
  4 34  1  0
  5 35  1  0
  5 36  1  0
  6 37  1  0
  6 38  1  0
  7 39  1  0
  7 40  1  0
  8 41  1  0
  8 42  1  0
  9 43  1  0
  9 44  1  0
 10 45  1  0
 10 46  1  0
 11 47  1  0
 11 48  1  0
 12 49  1  0
 17 50  1  0
 18 51  1  0
 19 52  1  0
 23 53  1  0
 24 54  1  0
 25 55  1  0
M  END
>  <_MoleculeID>  (121) 
smi13

>  <_InputIndex>  (121) 
13

>  <_InputSMILES>  (121) 
NCCCCCCCCCCNS(=O)(=O)c1cccc2c(Cl)cccc12

>  <_InputInChIKey>  (121) 
JLUUJHIQVIXTGT-UHFFFAOYSA-N

>  <_SMILES>  (121) 
NCCCCCCCCCCNS(=O)(=O)c1cccc2c(Cl)cccc12

>  <_InChIKey>  (121) 
JLUUJHIQVIXTGT-UHFFFAOYSA-N

$$$$
smi13_conf4
     RDKit          3D

 55 56  0  0  0  0  0  0  0  0999 V2000
    7.3499    2.7173   -9.2827 N   0  0  0  0  0  0  0  0  0  0  0  0
    5.9054    2.6924   -9.0708 C   0  0  0  0  0  0  0  0  0  0  0  0
    5.4393    2.6347   -7.6118 C   0  0  0  0  0  0  0  0  0  0  0  0
    3.9170    2.6112   -7.4658 C   0  0  0  0  0  0  0  0  0  0  0  0
    3.4981    2.5537   -5.9955 C   0  0  0  0  0  0  0  0  0  0  0  0
    1.9746    2.5304   -5.8555 C   0  0  0  0  0  0  0  0  0  0  0  0
    1.5004    2.4728   -4.4010 C   0  0  0  0  0  0  0  0  0  0  0  0
    1.9933    1.2358   -3.6475 C   0  0  0  0  0  0  0  0  0  0  0  0
    1.4888    1.2335   -2.2027 C   0  0  0  0  0  0  0  0  0  0  0  0
    1.9772   -0.0000   -1.4428 C   0  0  0  0  0  0  0  0  0  0  0  0
    1.4720   -0.0000    0.0000 C   0  0  0  0  0  0  0  0  0  0  0  0
    0.0000   -0.0000    0.0000 N   0  0  0  0  0  0  0  0  0  0  0  0
   -0.8801    0.0000    1.4527 S   0  0  0  0  0  6  0  0  0  0  0  0
   -2.2673    0.3293    1.1875 O   0  0  0  0  0  0  0  0  0  0  0  0
   -0.1348    0.7373    2.4552 O   0  0  0  0  0  0  0  0  0  0  0  0
   -0.8027   -1.7091    1.9065 C   0  0  0  0  0  0  0  0  0  0  0  0
   -0.0115   -2.1107    2.9850 C   0  0  0  0  0  0  0  0  0  0  0  0
    0.0626   -3.4458    3.3649 C   0  0  0  0  0  0  0  0  0  0  0  0
   -0.6498   -4.3987    2.6370 C   0  0  0  0  0  0  0  0  0  0  0  0
   -1.4325   -4.0255    1.5309 C   0  0  0  0  0  0  0  0  0  0  0  0
   -2.1354   -4.9775    0.7801 C   0  0  0  0  0  0  0  0  0  0  0  0
   -2.0673   -6.6459    1.1968 Cl  0  0  0  0  0  0  0  0  0  0  0  0
   -2.8994   -4.5914   -0.3222 C   0  0  0  0  0  0  0  0  0  0  0  0
   -2.9792   -3.2484   -0.6968 C   0  0  0  0  0  0  0  0  0  0  0  0
   -2.2870   -2.2891    0.0479 C   0  0  0  0  0  0  0  0  0  0  0  0
   -1.5113   -2.6628    1.1608 C   0  0  0  0  0  0  0  0  0  0  0  0
    7.7777    1.9293   -8.7975 H   0  0  0  0  0  0  0  0  0  0  0  0
    7.7366    3.5536   -8.8462 H   0  0  0  0  0  0  0  0  0  0  0  0
    5.5650    1.7624   -9.5447 H   0  0  0  0  0  0  0  0  0  0  0  0
    5.3907    3.4821   -9.6271 H   0  0  0  0  0  0  0  0  0  0  0  0
    5.8793    3.4562   -7.0359 H   0  0  0  0  0  0  0  0  0  0  0  0
    5.8335    1.7157   -7.1581 H   0  0  0  0  0  0  0  0  0  0  0  0
    3.5177    1.7383   -7.9970 H   0  0  0  0  0  0  0  0  0  0  0  0
    3.4676    3.4872   -7.9350 H   0  0  0  0  0  0  0  0  0  0  0  0
    3.8981    3.4269   -5.4663 H   0  0  0  0  0  0  0  0  0  0  0  0
    3.9355    1.6627   -5.5316 H   0  0  0  0  0  0  0  0  0  0  0  0
    1.5638    1.6802   -6.4134 H   0  0  0  0  0  0  0  0  0  0  0  0
    1.5586    3.4378   -6.3111 H   0  0  0  0  0  0  0  0  0  0  0  0
    0.4033    2.4792   -4.3990 H   0  0  0  0  0  0  0  0  0  0  0  0
    1.8214    3.3803   -3.8749 H   0  0  0  0  0  0  0  0  0  0  0  0
    3.0886    1.2084   -3.6435 H   0  0  0  0  0  0  0  0  0  0  0  0
    1.6461    0.3306   -4.1600 H   0  0  0  0  0  0  0  0  0  0  0  0
    0.3922    1.2573   -2.1959 H   0  0  0  0  0  0  0  0  0  0  0  0
    1.8352    2.1405   -1.6924 H   0  0  0  0  0  0  0  0  0  0  0  0
    3.0741   -0.0289   -1.4495 H   0  0  0  0  0  0  0  0  0  0  0  0
    1.6346   -0.9090   -1.9530 H   0  0  0  0  0  0  0  0  0  0  0  0
    1.8723    0.8746    0.5241 H   0  0  0  0  0  0  0  0  0  0  0  0
    1.8388   -0.8927    0.5208 H   0  0  0  0  0  0  0  0  0  0  0  0
   -0.4789   -0.1271   -0.8995 H   0  0  0  0  0  0  0  0  0  0  0  0
    0.5455   -1.3635    3.5447 H   0  0  0  0  0  0  0  0  0  0  0  0
    0.6680   -3.7704    4.2049 H   0  0  0  0  0  0  0  0  0  0  0  0
   -0.5804   -5.4430    2.9355 H   0  0  0  0  0  0  0  0  0  0  0  0
   -3.4321   -5.3514   -0.8890 H   0  0  0  0  0  0  0  0  0  0  0  0
   -3.5734   -2.9521   -1.5553 H   0  0  0  0  0  0  0  0  0  0  0  0
   -2.3321   -1.2368   -0.2225 H   0  0  0  0  0  0  0  0  0  0  0  0
  1  2  1  0
  2  3  1  0
  3  4  1  0
  4  5  1  0
  5  6  1  0
  6  7  1  0
  7  8  1  0
  8  9  1  0
  9 10  1  0
 10 11  1  0
 11 12  1  0
 12 13  1  0
 13 14  2  0
 13 15  2  0
 13 16  1  0
 16 17  2  0
 17 18  1  0
 18 19  2  0
 19 20  1  0
 20 21  2  0
 21 22  1  0
 21 23  1  0
 23 24  2  0
 24 25  1  0
 25 26  2  0
 26 16  1  0
 26 20  1  0
  1 27  1  0
  1 28  1  0
  2 29  1  0
  2 30  1  0
  3 31  1  0
  3 32  1  0
  4 33  1  0
  4 34  1  0
  5 35  1  0
  5 36  1  0
  6 37  1  0
  6 38  1  0
  7 39  1  0
  7 40  1  0
  8 41  1  0
  8 42  1  0
  9 43  1  0
  9 44  1  0
 10 45  1  0
 10 46  1  0
 11 47  1  0
 11 48  1  0
 12 49  1  0
 17 50  1  0
 18 51  1  0
 19 52  1  0
 23 53  1  0
 24 54  1  0
 25 55  1  0
M  END
>  <_MoleculeID>  (122) 
smi13

>  <_InputIndex>  (122) 
13

>  <_InputSMILES>  (122) 
NCCCCCCCCCCNS(=O)(=O)c1cccc2c(Cl)cccc12

>  <_InputInChIKey>  (122) 
JLUUJHIQVIXTGT-UHFFFAOYSA-N

>  <_SMILES>  (122) 
NCCCCCCCCCCNS(=O)(=O)c1cccc2c(Cl)cccc12

>  <_InChIKey>  (122) 
JLUUJHIQVIXTGT-UHFFFAOYSA-N

$$$$
smi13_conf5
     RDKit          3D

 55 56  0  0  0  0  0  0  0  0999 V2000
    1.6184   -0.7888  -11.2897 N   0  0  0  0  0  0  0  0  0  0  0  0
    2.0252    0.3188  -10.4295 C   0  0  0  0  0  0  0  0  0  0  0  0
    1.5463    0.2533   -8.9751 C   0  0  0  0  0  0  0  0  0  0  0  0
    2.0090    1.4440   -8.1339 C   0  0  0  0  0  0  0  0  0  0  0  0
    1.5088    1.3368   -6.6921 C   0  0  0  0  0  0  0  0  0  0  0  0
    1.9746    2.5304   -5.8555 C   0  0  0  0  0  0  0  0  0  0  0  0
    1.5004    2.4728   -4.4010 C   0  0  0  0  0  0  0  0  0  0  0  0
    1.9933    1.2358   -3.6475 C   0  0  0  0  0  0  0  0  0  0  0  0
    1.4888    1.2335   -2.2027 C   0  0  0  0  0  0  0  0  0  0  0  0
    1.9772   -0.0000   -1.4428 C   0  0  0  0  0  0  0  0  0  0  0  0
    1.4720   -0.0000    0.0000 C   0  0  0  0  0  0  0  0  0  0  0  0
    0.0000   -0.0000    0.0000 N   0  0  0  0  0  0  0  0  0  0  0  0
   -0.8801    0.0000    1.4527 S   0  0  0  0  0  6  0  0  0  0  0  0
   -2.2673    0.3293    1.1875 O   0  0  0  0  0  0  0  0  0  0  0  0
   -0.1348    0.7373    2.4552 O   0  0  0  0  0  0  0  0  0  0  0  0
   -0.8027   -1.7091    1.9065 C   0  0  0  0  0  0  0  0  0  0  0  0
   -0.0115   -2.1107    2.9850 C   0  0  0  0  0  0  0  0  0  0  0  0
    0.0626   -3.4458    3.3649 C   0  0  0  0  0  0  0  0  0  0  0  0
   -0.6498   -4.3987    2.6370 C   0  0  0  0  0  0  0  0  0  0  0  0
   -1.4325   -4.0255    1.5309 C   0  0  0  0  0  0  0  0  0  0  0  0
   -2.1354   -4.9775    0.7801 C   0  0  0  0  0  0  0  0  0  0  0  0
   -2.0673   -6.6459    1.1968 Cl  0  0  0  0  0  0  0  0  0  0  0  0
   -2.8994   -4.5914   -0.3222 C   0  0  0  0  0  0  0  0  0  0  0  0
   -2.9792   -3.2484   -0.6968 C   0  0  0  0  0  0  0  0  0  0  0  0
   -2.2870   -2.2891    0.0479 C   0  0  0  0  0  0  0  0  0  0  0  0
   -1.5113   -2.6628    1.1608 C   0  0  0  0  0  0  0  0  0  0  0  0
    0.6055   -0.8971  -11.2472 H   0  0  0  0  0  0  0  0  0  0  0  0
    2.0049   -1.6570  -10.9207 H   0  0  0  0  0  0  0  0  0  0  0  0
    1.5588    1.2084  -10.8725 H   0  0  0  0  0  0  0  0  0  0  0  0
    3.0995    0.5191  -10.4912 H   0  0  0  0  0  0  0  0  0  0  0  0
    1.8444   -0.6953   -8.5155 H   0  0  0  0  0  0  0  0  0  0  0  0
    0.4482    0.2474   -8.9717 H   0  0  0  0  0  0  0  0  0  0  0  0
    1.6349    2.3711   -8.5857 H   0  0  0  0  0  0  0  0  0  0  0  0
    3.0969    1.5208   -8.1336 H   0  0  0  0  0  0  0  0  0  0  0  0
    1.8837    0.4097   -6.2423 H   0  0  0  0  0  0  0  0  0  0  0  0
    0.4147    1.2790   -6.6945 H   0  0  0  0  0  0  0  0  0  0  0  0
    1.6345    3.4640   -6.3198 H   0  0  0  0  0  0  0  0  0  0  0  0
    3.0714    2.5602   -5.8527 H   0  0  0  0  0  0  0  0  0  0  0  0
    0.4033    2.4792   -4.3990 H   0  0  0  0  0  0  0  0  0  0  0  0
    1.8214    3.3803   -3.8749 H   0  0  0  0  0  0  0  0  0  0  0  0
    3.0886    1.2084   -3.6435 H   0  0  0  0  0  0  0  0  0  0  0  0
    1.6461    0.3306   -4.1600 H   0  0  0  0  0  0  0  0  0  0  0  0
    0.3922    1.2573   -2.1959 H   0  0  0  0  0  0  0  0  0  0  0  0
    1.8352    2.1405   -1.6924 H   0  0  0  0  0  0  0  0  0  0  0  0
    3.0741   -0.0289   -1.4495 H   0  0  0  0  0  0  0  0  0  0  0  0
    1.6346   -0.9090   -1.9530 H   0  0  0  0  0  0  0  0  0  0  0  0
    1.8723    0.8746    0.5241 H   0  0  0  0  0  0  0  0  0  0  0  0
    1.8388   -0.8927    0.5208 H   0  0  0  0  0  0  0  0  0  0  0  0
   -0.4789   -0.1271   -0.8995 H   0  0  0  0  0  0  0  0  0  0  0  0
    0.5455   -1.3635    3.5447 H   0  0  0  0  0  0  0  0  0  0  0  0
    0.6680   -3.7704    4.2049 H   0  0  0  0  0  0  0  0  0  0  0  0
   -0.5804   -5.4430    2.9355 H   0  0  0  0  0  0  0  0  0  0  0  0
   -3.4321   -5.3514   -0.8890 H   0  0  0  0  0  0  0  0  0  0  0  0
   -3.5734   -2.9521   -1.5553 H   0  0  0  0  0  0  0  0  0  0  0  0
   -2.3321   -1.2368   -0.2225 H   0  0  0  0  0  0  0  0  0  0  0  0
  1  2  1  0
  2  3  1  0
  3  4  1  0
  4  5  1  0
  5  6  1  0
  6  7  1  0
  7  8  1  0
  8  9  1  0
  9 10  1  0
 10 11  1  0
 11 12  1  0
 12 13  1  0
 13 14  2  0
 13 15  2  0
 13 16  1  0
 16 17  2  0
 17 18  1  0
 18 19  2  0
 19 20  1  0
 20 21  2  0
 21 22  1  0
 21 23  1  0
 23 24  2  0
 24 25  1  0
 25 26  2  0
 26 16  1  0
 26 20  1  0
  1 27  1  0
  1 28  1  0
  2 29  1  0
  2 30  1  0
  3 31  1  0
  3 32  1  0
  4 33  1  0
  4 34  1  0
  5 35  1  0
  5 36  1  0
  6 37  1  0
  6 38  1  0
  7 39  1  0
  7 40  1  0
  8 41  1  0
  8 42  1  0
  9 43  1  0
  9 44  1  0
 10 45  1  0
 10 46  1  0
 11 47  1  0
 11 48  1  0
 12 49  1  0
 17 50  1  0
 18 51  1  0
 19 52  1  0
 23 53  1  0
 24 54  1  0
 25 55  1  0
M  END
>  <_MoleculeID>  (123) 
smi13

>  <_InputIndex>  (123) 
13

>  <_InputSMILES>  (123) 
NCCCCCCCCCCNS(=O)(=O)c1cccc2c(Cl)cccc12

>  <_InputInChIKey>  (123) 
JLUUJHIQVIXTGT-UHFFFAOYSA-N

>  <_SMILES>  (123) 
NCCCCCCCCCCNS(=O)(=O)c1cccc2c(Cl)cccc12

>  <_InChIKey>  (123) 
JLUUJHIQVIXTGT-UHFFFAOYSA-N

$$$$
smi13_conf6
     RDKit          3D

 55 56  0  0  0  0  0  0  0  0999 V2000
    9.8684    1.1358   -8.1996 N   0  0  0  0  0  0  0  0  0  0  0  0
   10.2440   -0.0000   -7.3624 C   0  0  0  0  0  0  0  0  0  0  0  0
    9.6835   -0.0000   -5.9359 C   0  0  0  0  0  0  0  0  0  0  0  0
    8.1548   -0.0000   -5.8888 C   0  0  0  0  0  0  0  0  0  0  0  0
    7.6406   -0.0000   -4.4479 C   0  0  0  0  0  0  0  0  0  0  0  0
    6.1111   -0.0000   -4.4070 C   0  0  0  0  0  0  0  0  0  0  0  0
    5.5428   -0.0000   -2.9855 C   0  0  0  0  0  0  0  0  0  0  0  0
    4.0135   -0.0000   -2.9400 C   0  0  0  0  0  0  0  0  0  0  0  0
    3.5052   -0.0000   -1.4966 C   0  0  0  0  0  0  0  0  0  0  0  0
    1.9772   -0.0000   -1.4428 C   0  0  0  0  0  0  0  0  0  0  0  0
    1.4720   -0.0000    0.0000 C   0  0  0  0  0  0  0  0  0  0  0  0
    0.0000    0.0000    0.0000 N   0  0  0  0  0  0  0  0  0  0  0  0
   -0.8801    0.0000    1.4527 S   0  0  0  0  0  6  0  0  0  0  0  0
   -0.1673   -0.7623    2.4597 O   0  0  0  0  0  0  0  0  0  0  0  0
   -2.2698   -0.2972    1.1617 O   0  0  0  0  0  0  0  0  0  0  0  0
   -0.8027    1.7091    1.9065 C   0  0  0  0  0  0  0  0  0  0  0  0
   -0.0950    2.6123    1.1102 C   0  0  0  0  0  0  0  0  0  0  0  0
   -0.0232    3.9604    1.4416 C   0  0  0  0  0  0  0  0  0  0  0  0
   -0.6513    4.4076    2.6039 C   0  0  0  0  0  0  0  0  0  0  0  0
   -1.3475    3.5155    3.4373 C   0  0  0  0  0  0  0  0  0  0  0  0
   -1.9643    3.9507    4.6182 C   0  0  0  0  0  0  0  0  0  0  0  0
   -1.8940    5.6058    5.0845 Cl  0  0  0  0  0  0  0  0  0  0  0  0
   -2.6425    3.0497    5.4404 C   0  0  0  0  0  0  0  0  0  0  0  0
   -2.7207    1.6973    5.1010 C   0  0  0  0  0  0  0  0  0  0  0  0
   -2.1143    1.2525    3.9227 C   0  0  0  0  0  0  0  0  0  0  0  0
   -1.4256    2.1482    3.0841 C   0  0  0  0  0  0  0  0  0  0  0  0
   10.1031    2.0038   -7.7191 H   0  0  0  0  0  0  0  0  0  0  0  0
    8.8552    1.1470   -8.3115 H   0  0  0  0  0  0  0  0  0  0  0  0
   11.3360    0.0648   -7.2692 H   0  0  0  0  0  0  0  0  0  0  0  0
   10.0729   -0.9585   -7.8623 H   0  0  0  0  0  0  0  0  0  0  0  0
   10.0970    0.8360   -5.3613 H   0  0  0  0  0  0  0  0  0  0  0  0
   10.0343   -0.9070   -5.4257 H   0  0  0  0  0  0  0  0  0  0  0  0
    7.7783   -0.8864   -6.4143 H   0  0  0  0  0  0  0  0  0  0  0  0
    7.7493    0.8641   -6.4165 H   0  0  0  0  0  0  0  0  0  0  0  0
    8.0180    0.8865   -3.9244 H   0  0  0  0  0  0  0  0  0  0  0  0
    8.0342   -0.8792   -3.9258 H   0  0  0  0  0  0  0  0  0  0  0  0
    5.7252   -0.8646   -4.9606 H   0  0  0  0  0  0  0  0  0  0  0  0
    5.7385    0.8956   -4.9200 H   0  0  0  0  0  0  0  0  0  0  0  0
    5.9159    0.8930   -2.4687 H   0  0  0  0  0  0  0  0  0  0  0  0
    5.9305   -0.8666   -2.4359 H   0  0  0  0  0  0  0  0  0  0  0  0
    3.6211   -0.8827   -3.4570 H   0  0  0  0  0  0  0  0  0  0  0  0
    3.6301    0.8831   -3.4652 H   0  0  0  0  0  0  0  0  0  0  0  0
    3.8901    0.8825   -0.9710 H   0  0  0  0  0  0  0  0  0  0  0  0
    3.8913   -0.8828   -0.9724 H   0  0  0  0  0  0  0  0  0  0  0  0
    1.5880   -0.8802   -1.9699 H   0  0  0  0  0  0  0  0  0  0  0  0
    1.5881    0.8806   -1.9692 H   0  0  0  0  0  0  0  0  0  0  0  0
    1.8723    0.8746    0.5241 H   0  0  0  0  0  0  0  0  0  0  0  0
    1.8388   -0.8927    0.5208 H   0  0  0  0  0  0  0  0  0  0  0  0
   -0.4789   -0.1271   -0.8995 H   0  0  0  0  0  0  0  0  0  0  0  0
    0.3968    2.2561    0.2085 H   0  0  0  0  0  0  0  0  0  0  0  0
    0.5175    4.6738    0.8282 H   0  0  0  0  0  0  0  0  0  0  0  0
   -0.5837    5.4629    2.8610 H   0  0  0  0  0  0  0  0  0  0  0  0
   -3.1093    3.4140    6.3526 H   0  0  0  0  0  0  0  0  0  0  0  0
   -3.2480    0.9994    5.7434 H   0  0  0  0  0  0  0  0  0  0  0  0
   -2.1602    0.2047    3.6353 H   0  0  0  0  0  0  0  0  0  0  0  0
  1  2  1  0
  2  3  1  0
  3  4  1  0
  4  5  1  0
  5  6  1  0
  6  7  1  0
  7  8  1  0
  8  9  1  0
  9 10  1  0
 10 11  1  0
 11 12  1  0
 12 13  1  0
 13 14  2  0
 13 15  2  0
 13 16  1  0
 16 17  2  0
 17 18  1  0
 18 19  2  0
 19 20  1  0
 20 21  2  0
 21 22  1  0
 21 23  1  0
 23 24  2  0
 24 25  1  0
 25 26  2  0
 26 16  1  0
 26 20  1  0
  1 27  1  0
  1 28  1  0
  2 29  1  0
  2 30  1  0
  3 31  1  0
  3 32  1  0
  4 33  1  0
  4 34  1  0
  5 35  1  0
  5 36  1  0
  6 37  1  0
  6 38  1  0
  7 39  1  0
  7 40  1  0
  8 41  1  0
  8 42  1  0
  9 43  1  0
  9 44  1  0
 10 45  1  0
 10 46  1  0
 11 47  1  0
 11 48  1  0
 12 49  1  0
 17 50  1  0
 18 51  1  0
 19 52  1  0
 23 53  1  0
 24 54  1  0
 25 55  1  0
M  END
>  <_MoleculeID>  (124) 
smi13

>  <_InputIndex>  (124) 
13

>  <_InputSMILES>  (124) 
NCCCCCCCCCCNS(=O)(=O)c1cccc2c(Cl)cccc12

>  <_InputInChIKey>  (124) 
JLUUJHIQVIXTGT-UHFFFAOYSA-N

>  <_SMILES>  (124) 
NCCCCCCCCCCNS(=O)(=O)c1cccc2c(Cl)cccc12

>  <_InChIKey>  (124) 
JLUUJHIQVIXTGT-UHFFFAOYSA-N

$$$$
smi13_conf7
     RDKit          3D

 55 56  0  0  0  0  0  0  0  0999 V2000
    7.8829   -8.9933   -2.3704 N   0  0  0  0  0  0  0  0  0  0  0  0
    6.4265   -8.8883   -2.3736 C   0  0  0  0  0  0  0  0  0  0  0  0
    5.8534   -7.4668   -2.3814 C   0  0  0  0  0  0  0  0  0  0  0  0
    6.2776   -6.6392   -1.1672 C   0  0  0  0  0  0  0  0  0  0  0  0
    5.6835   -5.2302   -1.2169 C   0  0  0  0  0  0  0  0  0  0  0  0
    6.1111   -4.4070    0.0000 C   0  0  0  0  0  0  0  0  0  0  0  0
    5.5428   -2.9855    0.0000 C   0  0  0  0  0  0  0  0  0  0  0  0
    4.0135   -2.9400    0.0000 C   0  0  0  0  0  0  0  0  0  0  0  0
    3.5052   -1.4966   -0.0000 C   0  0  0  0  0  0  0  0  0  0  0  0
    1.9772   -1.4428    0.0000 C   0  0  0  0  0  0  0  0  0  0  0  0
    1.4720    0.0000    0.0000 C   0  0  0  0  0  0  0  0  0  0  0  0
    0.0000    0.0000    0.0000 N   0  0  0  0  0  0  0  0  0  0  0  0
   -0.8801    0.0000    1.4527 S   0  0  0  0  0  6  0  0  0  0  0  0
   -0.1673   -0.7623    2.4597 O   0  0  0  0  0  0  0  0  0  0  0  0
   -2.2698   -0.2972    1.1617 O   0  0  0  0  0  0  0  0  0  0  0  0
   -0.8027    1.7091    1.9065 C   0  0  0  0  0  0  0  0  0  0  0  0
   -0.0636    2.1027    3.0242 C   0  0  0  0  0  0  0  0  0  0  0  0
    0.0175    3.4389    3.3988 C   0  0  0  0  0  0  0  0  0  0  0  0
   -0.6733    4.3951    2.6547 C   0  0  0  0  0  0  0  0  0  0  0  0
   -1.4461    4.0234    1.5412 C   0  0  0  0  0  0  0  0  0  0  0  0
   -2.1609    4.9736    0.7993 C   0  0  0  0  0  0  0  0  0  0  0  0
   -2.1083    6.6396    1.2277 Cl  0  0  0  0  0  0  0  0  0  0  0  0
   -2.9325    4.5863   -0.2973 C   0  0  0  0  0  0  0  0  0  0  0  0
   -3.0056    3.2443   -0.6770 C   0  0  0  0  0  0  0  0  0  0  0  0
   -2.2924    2.2883    0.0520 C   0  0  0  0  0  0  0  0  0  0  0  0
   -1.5113    2.6628    1.1608 C   0  0  0  0  0  0  0  0  0  0  0  0
    8.2607   -8.4471   -1.5968 H   0  0  0  0  0  0  0  0  0  0  0  0
    8.2501   -8.5626   -3.2183 H   0  0  0  0  0  0  0  0  0  0  0  0
    6.1065   -9.3492   -1.4300 H   0  0  0  0  0  0  0  0  0  0  0  0
    5.9672   -9.5119   -3.1471 H   0  0  0  0  0  0  0  0  0  0  0  0
    4.7628   -7.4935   -2.4806 H   0  0  0  0  0  0  0  0  0  0  0  0
    6.2162   -6.9519   -3.2810 H   0  0  0  0  0  0  0  0  0  0  0  0
    7.3725   -6.5765   -1.1387 H   0  0  0  0  0  0  0  0  0  0  0  0
    5.9745   -7.1260   -0.2394 H   0  0  0  0  0  0  0  0  0  0  0  0
    4.5892   -5.2949   -1.2453 H   0  0  0  0  0  0  0  0  0  0  0  0
    6.0051   -4.7368   -2.1408 H   0  0  0  0  0  0  0  0  0  0  0  0
    7.2057   -4.3689    0.0560 H   0  0  0  0  0  0  0  0  0  0  0  0
    5.7654   -4.9093    0.9123 H   0  0  0  0  0  0  0  0  0  0  0  0
    5.9159   -2.4687   -0.8930 H   0  0  0  0  0  0  0  0  0  0  0  0
    5.9305   -2.4359    0.8666 H   0  0  0  0  0  0  0  0  0  0  0  0
    3.6211   -3.4570    0.8827 H   0  0  0  0  0  0  0  0  0  0  0  0
    3.6301   -3.4652   -0.8831 H   0  0  0  0  0  0  0  0  0  0  0  0
    3.8901   -0.9710   -0.8825 H   0  0  0  0  0  0  0  0  0  0  0  0
    3.8913   -0.9724    0.8828 H   0  0  0  0  0  0  0  0  0  0  0  0
    1.5880   -1.9699    0.8802 H   0  0  0  0  0  0  0  0  0  0  0  0
    1.5881   -1.9692   -0.8806 H   0  0  0  0  0  0  0  0  0  0  0  0
    1.8723    0.5241   -0.8746 H   0  0  0  0  0  0  0  0  0  0  0  0
    1.8388    0.5208    0.8927 H   0  0  0  0  0  0  0  0  0  0  0  0
   -0.4789   -0.1271   -0.8995 H   0  0  0  0  0  0  0  0  0  0  0  0
    0.4680    1.3516    3.6030 H   0  0  0  0  0  0  0  0  0  0  0  0
    0.5936    3.7589    4.2609 H   0  0  0  0  0  0  0  0  0  0  0  0
   -0.6116    5.4382    2.9589 H   0  0  0  0  0  0  0  0  0  0  0  0
   -3.4796    5.3440   -0.8533 H   0  0  0  0  0  0  0  0  0  0  0  0
   -3.6075    2.9468   -1.5296 H   0  0  0  0  0  0  0  0  0  0  0  0
   -2.3322    1.2368   -0.2225 H   0  0  0  0  0  0  0  0  0  0  0  0
  1  2  1  0
  2  3  1  0
  3  4  1  0
  4  5  1  0
  5  6  1  0
  6  7  1  0
  7  8  1  0
  8  9  1  0
  9 10  1  0
 10 11  1  0
 11 12  1  0
 12 13  1  0
 13 14  2  0
 13 15  2  0
 13 16  1  0
 16 17  2  0
 17 18  1  0
 18 19  2  0
 19 20  1  0
 20 21  2  0
 21 22  1  0
 21 23  1  0
 23 24  2  0
 24 25  1  0
 25 26  2  0
 26 16  1  0
 26 20  1  0
  1 27  1  0
  1 28  1  0
  2 29  1  0
  2 30  1  0
  3 31  1  0
  3 32  1  0
  4 33  1  0
  4 34  1  0
  5 35  1  0
  5 36  1  0
  6 37  1  0
  6 38  1  0
  7 39  1  0
  7 40  1  0
  8 41  1  0
  8 42  1  0
  9 43  1  0
  9 44  1  0
 10 45  1  0
 10 46  1  0
 11 47  1  0
 11 48  1  0
 12 49  1  0
 17 50  1  0
 18 51  1  0
 19 52  1  0
 23 53  1  0
 24 54  1  0
 25 55  1  0
M  END
>  <_MoleculeID>  (125) 
smi13

>  <_InputIndex>  (125) 
13

>  <_InputSMILES>  (125) 
NCCCCCCCCCCNS(=O)(=O)c1cccc2c(Cl)cccc12

>  <_InputInChIKey>  (125) 
JLUUJHIQVIXTGT-UHFFFAOYSA-N

>  <_SMILES>  (125) 
NCCCCCCCCCCNS(=O)(=O)c1cccc2c(Cl)cccc12

>  <_InChIKey>  (125) 
JLUUJHIQVIXTGT-UHFFFAOYSA-N

$$$$
smi13_conf8
     RDKit          3D

 55 56  0  0  0  0  0  0  0  0999 V2000
   11.7678    1.2831   -5.2588 N   0  0  0  0  0  0  0  0  0  0  0  0
   10.3090    1.2199   -5.2505 C   0  0  0  0  0  0  0  0  0  0  0  0
    9.6835   -0.0000   -5.9359 C   0  0  0  0  0  0  0  0  0  0  0  0
    8.1548   -0.0000   -5.8888 C   0  0  0  0  0  0  0  0  0  0  0  0
    7.6406   -0.0000   -4.4479 C   0  0  0  0  0  0  0  0  0  0  0  0
    6.1111   -0.0000   -4.4070 C   0  0  0  0  0  0  0  0  0  0  0  0
    5.5428   -0.0000   -2.9855 C   0  0  0  0  0  0  0  0  0  0  0  0
    4.0135   -0.0000   -2.9400 C   0  0  0  0  0  0  0  0  0  0  0  0
    3.5052   -0.0000   -1.4966 C   0  0  0  0  0  0  0  0  0  0  0  0
    1.9772   -0.0000   -1.4428 C   0  0  0  0  0  0  0  0  0  0  0  0
    1.4720   -0.0000    0.0000 C   0  0  0  0  0  0  0  0  0  0  0  0
    0.0000   -0.0000    0.0000 N   0  0  0  0  0  0  0  0  0  0  0  0
   -0.8801    0.0000    1.4527 S   0  0  0  0  0  6  0  0  0  0  0  0
   -2.2673    0.3293    1.1875 O   0  0  0  0  0  0  0  0  0  0  0  0
   -0.1348    0.7373    2.4552 O   0  0  0  0  0  0  0  0  0  0  0  0
   -0.8027   -1.7091    1.9065 C   0  0  0  0  0  0  0  0  0  0  0  0
   -0.0115   -2.1107    2.9850 C   0  0  0  0  0  0  0  0  0  0  0  0
    0.0626   -3.4458    3.3649 C   0  0  0  0  0  0  0  0  0  0  0  0
   -0.6498   -4.3987    2.6370 C   0  0  0  0  0  0  0  0  0  0  0  0
   -1.4325   -4.0255    1.5309 C   0  0  0  0  0  0  0  0  0  0  0  0
   -2.1354   -4.9775    0.7801 C   0  0  0  0  0  0  0  0  0  0  0  0
   -2.0673   -6.6459    1.1968 Cl  0  0  0  0  0  0  0  0  0  0  0  0
   -2.8994   -4.5914   -0.3222 C   0  0  0  0  0  0  0  0  0  0  0  0
   -2.9792   -3.2484   -0.6968 C   0  0  0  0  0  0  0  0  0  0  0  0
   -2.2870   -2.2891    0.0479 C   0  0  0  0  0  0  0  0  0  0  0  0
   -1.5113   -2.6628    1.1608 C   0  0  0  0  0  0  0  0  0  0  0  0
   12.1058    1.1938   -6.2166 H   0  0  0  0  0  0  0  0  0  0  0  0
   12.1394    0.4765   -4.7582 H   0  0  0  0  0  0  0  0  0  0  0  0
    9.9834    2.0999   -5.8205 H   0  0  0  0  0  0  0  0  0  0  0  0
    9.8925    1.3776   -4.2507 H   0  0  0  0  0  0  0  0  0  0  0  0
   10.0922   -0.9264   -5.5177 H   0  0  0  0  0  0  0  0  0  0  0  0
    9.9861    0.0026   -6.9915 H   0  0  0  0  0  0  0  0  0  0  0  0
    7.7783   -0.8864   -6.4143 H   0  0  0  0  0  0  0  0  0  0  0  0
    7.7493    0.8641   -6.4165 H   0  0  0  0  0  0  0  0  0  0  0  0
    8.0180    0.8865   -3.9244 H   0  0  0  0  0  0  0  0  0  0  0  0
    8.0342   -0.8792   -3.9258 H   0  0  0  0  0  0  0  0  0  0  0  0
    5.7252   -0.8646   -4.9606 H   0  0  0  0  0  0  0  0  0  0  0  0
    5.7385    0.8956   -4.9200 H   0  0  0  0  0  0  0  0  0  0  0  0
    5.9159    0.8930   -2.4687 H   0  0  0  0  0  0  0  0  0  0  0  0
    5.9305   -0.8666   -2.4359 H   0  0  0  0  0  0  0  0  0  0  0  0
    3.6211   -0.8827   -3.4570 H   0  0  0  0  0  0  0  0  0  0  0  0
    3.6301    0.8831   -3.4652 H   0  0  0  0  0  0  0  0  0  0  0  0
    3.8901    0.8825   -0.9710 H   0  0  0  0  0  0  0  0  0  0  0  0
    3.8913   -0.8828   -0.9724 H   0  0  0  0  0  0  0  0  0  0  0  0
    1.5880   -0.8802   -1.9699 H   0  0  0  0  0  0  0  0  0  0  0  0
    1.5881    0.8806   -1.9692 H   0  0  0  0  0  0  0  0  0  0  0  0
    1.8723    0.8746    0.5241 H   0  0  0  0  0  0  0  0  0  0  0  0
    1.8388   -0.8927    0.5208 H   0  0  0  0  0  0  0  0  0  0  0  0
   -0.4789   -0.1271   -0.8995 H   0  0  0  0  0  0  0  0  0  0  0  0
    0.5455   -1.3635    3.5447 H   0  0  0  0  0  0  0  0  0  0  0  0
    0.6680   -3.7704    4.2049 H   0  0  0  0  0  0  0  0  0  0  0  0
   -0.5804   -5.4430    2.9355 H   0  0  0  0  0  0  0  0  0  0  0  0
   -3.4321   -5.3514   -0.8890 H   0  0  0  0  0  0  0  0  0  0  0  0
   -3.5734   -2.9521   -1.5553 H   0  0  0  0  0  0  0  0  0  0  0  0
   -2.3321   -1.2368   -0.2225 H   0  0  0  0  0  0  0  0  0  0  0  0
  1  2  1  0
  2  3  1  0
  3  4  1  0
  4  5  1  0
  5  6  1  0
  6  7  1  0
  7  8  1  0
  8  9  1  0
  9 10  1  0
 10 11  1  0
 11 12  1  0
 12 13  1  0
 13 14  2  0
 13 15  2  0
 13 16  1  0
 16 17  2  0
 17 18  1  0
 18 19  2  0
 19 20  1  0
 20 21  2  0
 21 22  1  0
 21 23  1  0
 23 24  2  0
 24 25  1  0
 25 26  2  0
 26 16  1  0
 26 20  1  0
  1 27  1  0
  1 28  1  0
  2 29  1  0
  2 30  1  0
  3 31  1  0
  3 32  1  0
  4 33  1  0
  4 34  1  0
  5 35  1  0
  5 36  1  0
  6 37  1  0
  6 38  1  0
  7 39  1  0
  7 40  1  0
  8 41  1  0
  8 42  1  0
  9 43  1  0
  9 44  1  0
 10 45  1  0
 10 46  1  0
 11 47  1  0
 11 48  1  0
 12 49  1  0
 17 50  1  0
 18 51  1  0
 19 52  1  0
 23 53  1  0
 24 54  1  0
 25 55  1  0
M  END
>  <_MoleculeID>  (126) 
smi13

>  <_InputIndex>  (126) 
13

>  <_InputSMILES>  (126) 
NCCCCCCCCCCNS(=O)(=O)c1cccc2c(Cl)cccc12

>  <_InputInChIKey>  (126) 
JLUUJHIQVIXTGT-UHFFFAOYSA-N

>  <_SMILES>  (126) 
NCCCCCCCCCCNS(=O)(=O)c1cccc2c(Cl)cccc12

>  <_InChIKey>  (126) 
JLUUJHIQVIXTGT-UHFFFAOYSA-N

$$$$
smi13_conf9
     RDKit          3D

 55 56  0  0  0  0  0  0  0  0999 V2000
   11.8165   -2.5313   -3.0975 N   0  0  0  0  0  0  0  0  0  0  0  0
   10.3579   -2.4629   -3.0980 C   0  0  0  0  0  0  0  0  0  0  0  0
    9.7409   -1.2409   -3.7873 C   0  0  0  0  0  0  0  0  0  0  0  0
    8.2119   -1.2356   -3.7495 C   0  0  0  0  0  0  0  0  0  0  0  0
    7.6406   -0.0000   -4.4479 C   0  0  0  0  0  0  0  0  0  0  0  0
    6.1111   -0.0000   -4.4070 C   0  0  0  0  0  0  0  0  0  0  0  0
    5.5428   -0.0000   -2.9855 C   0  0  0  0  0  0  0  0  0  0  0  0
    4.0135   -0.0000   -2.9400 C   0  0  0  0  0  0  0  0  0  0  0  0
    3.5052   -0.0000   -1.4966 C   0  0  0  0  0  0  0  0  0  0  0  0
    1.9772   -0.0000   -1.4428 C   0  0  0  0  0  0  0  0  0  0  0  0
    1.4720   -0.0000    0.0000 C   0  0  0  0  0  0  0  0  0  0  0  0
    0.0000    0.0000    0.0000 N   0  0  0  0  0  0  0  0  0  0  0  0
   -0.8801    0.0000    1.4527 S   0  0  0  0  0  6  0  0  0  0  0  0
   -0.1673   -0.7623    2.4597 O   0  0  0  0  0  0  0  0  0  0  0  0
   -2.2698   -0.2972    1.1617 O   0  0  0  0  0  0  0  0  0  0  0  0
   -0.8027    1.7091    1.9065 C   0  0  0  0  0  0  0  0  0  0  0  0
   -0.0636    2.1027    3.0242 C   0  0  0  0  0  0  0  0  0  0  0  0
    0.0175    3.4389    3.3988 C   0  0  0  0  0  0  0  0  0  0  0  0
   -0.6733    4.3951    2.6547 C   0  0  0  0  0  0  0  0  0  0  0  0
   -1.4461    4.0234    1.5412 C   0  0  0  0  0  0  0  0  0  0  0  0
   -2.1609    4.9736    0.7993 C   0  0  0  0  0  0  0  0  0  0  0  0
   -2.1083    6.6396    1.2277 Cl  0  0  0  0  0  0  0  0  0  0  0  0
   -2.9325    4.5863   -0.2973 C   0  0  0  0  0  0  0  0  0  0  0  0
   -3.0056    3.2443   -0.6770 C   0  0  0  0  0  0  0  0  0  0  0  0
   -2.2924    2.2883    0.0520 C   0  0  0  0  0  0  0  0  0  0  0  0
   -1.5113    2.6628    1.1608 C   0  0  0  0  0  0  0  0  0  0  0  0
   12.1965   -1.6679   -2.7106 H   0  0  0  0  0  0  0  0  0  0  0  0
   12.1487   -2.5725   -4.0604 H   0  0  0  0  0  0  0  0  0  0  0  0
   10.0763   -2.3998   -2.0387 H   0  0  0  0  0  0  0  0  0  0  0  0
    9.8990   -3.3946   -3.4434 H   0  0  0  0  0  0  0  0  0  0  0  0
   10.1116   -1.1520   -4.8143 H   0  0  0  0  0  0  0  0  0  0  0  0
   10.0918   -0.3376   -3.2706 H   0  0  0  0  0  0  0  0  0  0  0  0
    7.8773   -1.2560   -2.7049 H   0  0  0  0  0  0  0  0  0  0  0  0
    7.8080   -2.1338   -4.2181 H   0  0  0  0  0  0  0  0  0  0  0  0
    7.9761    0.0186   -5.4917 H   0  0  0  0  0  0  0  0  0  0  0  0
    8.0332    0.9007   -3.9630 H   0  0  0  0  0  0  0  0  0  0  0  0
    5.7252   -0.8646   -4.9606 H   0  0  0  0  0  0  0  0  0  0  0  0
    5.7385    0.8956   -4.9200 H   0  0  0  0  0  0  0  0  0  0  0  0
    5.9159    0.8930   -2.4687 H   0  0  0  0  0  0  0  0  0  0  0  0
    5.9305   -0.8666   -2.4359 H   0  0  0  0  0  0  0  0  0  0  0  0
    3.6211   -0.8827   -3.4570 H   0  0  0  0  0  0  0  0  0  0  0  0
    3.6301    0.8831   -3.4652 H   0  0  0  0  0  0  0  0  0  0  0  0
    3.8901    0.8825   -0.9710 H   0  0  0  0  0  0  0  0  0  0  0  0
    3.8913   -0.8828   -0.9724 H   0  0  0  0  0  0  0  0  0  0  0  0
    1.5880   -0.8802   -1.9699 H   0  0  0  0  0  0  0  0  0  0  0  0
    1.5881    0.8806   -1.9692 H   0  0  0  0  0  0  0  0  0  0  0  0
    1.8723    0.8746    0.5241 H   0  0  0  0  0  0  0  0  0  0  0  0
    1.8388   -0.8927    0.5208 H   0  0  0  0  0  0  0  0  0  0  0  0
   -0.4789   -0.1271   -0.8995 H   0  0  0  0  0  0  0  0  0  0  0  0
    0.4680    1.3516    3.6030 H   0  0  0  0  0  0  0  0  0  0  0  0
    0.5936    3.7589    4.2609 H   0  0  0  0  0  0  0  0  0  0  0  0
   -0.6116    5.4382    2.9589 H   0  0  0  0  0  0  0  0  0  0  0  0
   -3.4796    5.3440   -0.8533 H   0  0  0  0  0  0  0  0  0  0  0  0
   -3.6075    2.9468   -1.5296 H   0  0  0  0  0  0  0  0  0  0  0  0
   -2.3322    1.2368   -0.2225 H   0  0  0  0  0  0  0  0  0  0  0  0
  1  2  1  0
  2  3  1  0
  3  4  1  0
  4  5  1  0
  5  6  1  0
  6  7  1  0
  7  8  1  0
  8  9  1  0
  9 10  1  0
 10 11  1  0
 11 12  1  0
 12 13  1  0
 13 14  2  0
 13 15  2  0
 13 16  1  0
 16 17  2  0
 17 18  1  0
 18 19  2  0
 19 20  1  0
 20 21  2  0
 21 22  1  0
 21 23  1  0
 23 24  2  0
 24 25  1  0
 25 26  2  0
 26 16  1  0
 26 20  1  0
  1 27  1  0
  1 28  1  0
  2 29  1  0
  2 30  1  0
  3 31  1  0
  3 32  1  0
  4 33  1  0
  4 34  1  0
  5 35  1  0
  5 36  1  0
  6 37  1  0
  6 38  1  0
  7 39  1  0
  7 40  1  0
  8 41  1  0
  8 42  1  0
  9 43  1  0
  9 44  1  0
 10 45  1  0
 10 46  1  0
 11 47  1  0
 11 48  1  0
 12 49  1  0
 17 50  1  0
 18 51  1  0
 19 52  1  0
 23 53  1  0
 24 54  1  0
 25 55  1  0
M  END
>  <_MoleculeID>  (127) 
smi13

>  <_InputIndex>  (127) 
13

>  <_InputSMILES>  (127) 
NCCCCCCCCCCNS(=O)(=O)c1cccc2c(Cl)cccc12

>  <_InputInChIKey>  (127) 
JLUUJHIQVIXTGT-UHFFFAOYSA-N

>  <_SMILES>  (127) 
NCCCCCCCCCCNS(=O)(=O)c1cccc2c(Cl)cccc12

>  <_InChIKey>  (127) 
JLUUJHIQVIXTGT-UHFFFAOYSA-N

$$$$
smi14_conf0
     RDKit          3D

 38 41  0  0  0  0  0  0  0  0999 V2000
    0.9398   -0.0159   -7.2781 O   0  0  0  0  0  0  0  0  0  0  0  0
    1.9690   -0.0140   -8.1914 C   0  0  0  0  0  0  0  0  0  0  0  0
    1.7026   -0.0292   -9.5629 C   0  0  0  0  0  0  0  0  0  0  0  0
    2.7463   -0.0264  -10.5001 C   0  0  0  0  0  0  0  0  0  0  0  0
    4.0940   -0.0114  -10.1087 C   0  0  0  0  0  0  0  0  0  0  0  0
    4.3249   -0.0110   -8.7195 C   0  0  0  0  0  0  0  0  0  0  0  0
    3.2970   -0.0164   -7.7666 C   0  0  0  0  0  0  0  0  0  0  0  0
    3.5986   -0.0168   -6.3627 C   0  0  0  0  0  0  0  0  0  0  0  0
    4.5055    0.9029   -5.8299 C   0  0  0  0  0  0  0  0  0  0  0  0
    4.8045    0.9095   -4.4594 C   0  0  0  0  0  0  0  0  0  0  0  0
    4.2152   -0.0001   -3.5678 C   0  0  0  0  0  0  0  0  0  0  0  0
    3.3178   -0.9212   -4.1418 C   0  0  0  0  0  0  0  0  0  0  0  0
    3.0073   -0.9467   -5.5083 C   0  0  0  0  0  0  0  0  0  0  0  0
    4.5157   -0.0000   -2.1677 C   0  0  0  0  0  0  0  0  0  0  0  0
    5.8087    0.0000   -1.6738 C   0  0  0  0  0  0  0  0  0  0  0  0
    5.8484    0.0001    0.0492 S   0  0  0  0  0  0  0  0  0  0  0  0
    4.1681    0.0000    0.1067 C   0  0  0  0  0  0  0  0  0  0  0  0
    3.5240    0.0000    1.3150 N   0  0  0  0  0  0  0  0  0  0  0  0
    2.1359    0.0000    1.3389 C   0  0  0  0  0  0  0  0  0  0  0  0
    1.4951   -0.0000    2.3903 O   0  0  0  0  0  0  0  0  0  0  0  0
    1.4150    0.0000    0.0000 C   0  0  0  0  0  0  0  0  0  0  0  0
    0.0000    0.0000    0.0000 C   0  0  0  0  0  0  0  0  0  0  0  0
   -1.1602   -0.0010   -0.0050 N   0  0  0  0  0  0  0  0  0  0  0  0
    2.1347    0.0000   -1.1454 C   0  0  0  0  0  0  0  0  0  0  0  0
    1.5924    0.0000   -2.4132 O   0  0  0  0  0  0  0  0  0  0  0  0
    3.5601    0.0000   -1.1165 C   0  0  0  0  0  0  0  0  0  0  0  0
    1.3063   -0.0040   -6.3789 H   0  0  0  0  0  0  0  0  0  0  0  0
    0.6761   -0.0469   -9.9216 H   0  0  0  0  0  0  0  0  0  0  0  0
    2.4675   -0.0442  -11.5508 H   0  0  0  0  0  0  0  0  0  0  0  0
    4.9031   -0.0095  -10.8269 H   0  0  0  0  0  0  0  0  0  0  0  0
    5.3562   -0.0063   -8.3689 H   0  0  0  0  0  0  0  0  0  0  0  0
    4.9956    1.6269   -6.4768 H   0  0  0  0  0  0  0  0  0  0  0  0
    5.5228    1.6487   -4.1136 H   0  0  0  0  0  0  0  0  0  0  0  0
    2.8412   -1.6511   -3.4886 H   0  0  0  0  0  0  0  0  0  0  0  0
    2.3078   -1.6786   -5.9053 H   0  0  0  0  0  0  0  0  0  0  0  0
    6.7309   -0.0000   -2.2375 H   0  0  0  0  0  0  0  0  0  0  0  0
    4.0689    0.0001    2.1706 H   0  0  0  0  0  0  0  0  0  0  0  0
    0.6234    0.0000   -2.3448 H   0  0  0  0  0  0  0  0  0  0  0  0
  1  2  1  0
  2  3  2  0
  3  4  1  0
  4  5  2  0
  5  6  1  0
  6  7  2  0
  7  8  1  0
  8  9  2  0
  9 10  1  0
 10 11  2  0
 11 12  1  0
 12 13  2  0
 11 14  1  0
 14 15  2  0
 15 16  1  0
 16 17  1  0
 17 18  1  0
 18 19  1  0
 19 20  2  0
 19 21  1  0
 21 22  1  0
 22 23  3  0
 21 24  2  0
 24 25  1  0
 24 26  1  0
  7  2  1  0
 13  8  1  0
 26 14  1  0
 26 17  2  0
  1 27  1  0
  3 28  1  0
  4 29  1  0
  5 30  1  0
  6 31  1  0
  9 32  1  0
 10 33  1  0
 12 34  1  0
 13 35  1  0
 15 36  1  0
 18 37  1  0
 25 38  1  0
M  END
>  <_MoleculeID>  (128) 
smi14

>  <_InputIndex>  (128) 
14

>  <_InputSMILES>  (128) 
Oc1ccccc1-c1ccc(cc1)-c1csc2[nH]c(=O)c(C#N)c(O)c12

>  <_InputInChIKey>  (128) 
CTESJDQKVOEUOY-UHFFFAOYSA-N

>  <_SMILES>  (128) 
N#Cc1c(O)c2c(-c3ccc(-c4ccccc4O)cc3)csc2[nH]c1=O

>  <_InChIKey>  (128) 
CTESJDQKVOEUOY-UHFFFAOYSA-N

$$$$
smi14_conf1
     RDKit          3D

 38 41  0  0  0  0  0  0  0  0999 V2000
    5.6796    0.0154   -8.2955 O   0  0  0  0  0  0  0  0  0  0  0  0
    4.3663    0.0135   -8.7060 C   0  0  0  0  0  0  0  0  0  0  0  0
    4.0463    0.0286  -10.0659 C   0  0  0  0  0  0  0  0  0  0  0  0
    2.7100    0.0257  -10.4923 C   0  0  0  0  0  0  0  0  0  0  0  0
    1.6416    0.0107   -9.5823 C   0  0  0  0  0  0  0  0  0  0  0  0
    2.0012    0.0104   -8.2207 C   0  0  0  0  0  0  0  0  0  0  0  0
    3.3295    0.0159   -7.7736 C   0  0  0  0  0  0  0  0  0  0  0  0
    3.6306    0.0164   -6.3695 C   0  0  0  0  0  0  0  0  0  0  0  0
    3.0223   -0.9032   -5.5115 C   0  0  0  0  0  0  0  0  0  0  0  0
    3.3120   -0.9097   -4.1390 C   0  0  0  0  0  0  0  0  0  0  0  0
    4.2152   -0.0001   -3.5678 C   0  0  0  0  0  0  0  0  0  0  0  0
    4.7980    0.9210   -4.4595 C   0  0  0  0  0  0  0  0  0  0  0  0
    4.5204    0.9463   -5.8331 C   0  0  0  0  0  0  0  0  0  0  0  0
    4.5157   -0.0000   -2.1677 C   0  0  0  0  0  0  0  0  0  0  0  0
    5.8087    0.0000   -1.6738 C   0  0  0  0  0  0  0  0  0  0  0  0
    5.8484    0.0001    0.0492 S   0  0  0  0  0  0  0  0  0  0  0  0
    4.1681    0.0000    0.1067 C   0  0  0  0  0  0  0  0  0  0  0  0
    3.5240    0.0000    1.3150 N   0  0  0  0  0  0  0  0  0  0  0  0
    2.1359    0.0000    1.3389 C   0  0  0  0  0  0  0  0  0  0  0  0
    1.4951   -0.0000    2.3903 O   0  0  0  0  0  0  0  0  0  0  0  0
    1.4150    0.0000    0.0000 C   0  0  0  0  0  0  0  0  0  0  0  0
    0.0000    0.0000    0.0000 C   0  0  0  0  0  0  0  0  0  0  0  0
   -1.1602   -0.0010   -0.0050 N   0  0  0  0  0  0  0  0  0  0  0  0
    2.1347    0.0000   -1.1454 C   0  0  0  0  0  0  0  0  0  0  0  0
    1.5924    0.0000   -2.4132 O   0  0  0  0  0  0  0  0  0  0  0  0
    3.5601    0.0000   -1.1165 C   0  0  0  0  0  0  0  0  0  0  0  0
    5.7144    0.0036   -7.3250 H   0  0  0  0  0  0  0  0  0  0  0  0
    4.8352    0.0461  -10.8143 H   0  0  0  0  0  0  0  0  0  0  0  0
    2.5330    0.0434  -11.5649 H   0  0  0  0  0  0  0  0  0  0  0  0
    0.6090    0.0088   -9.9053 H   0  0  0  0  0  0  0  0  0  0  0  0
    1.2045    0.0058   -7.4778 H   0  0  0  0  0  0  0  0  0  0  0  0
    2.3099   -1.6272   -5.9002 H   0  0  0  0  0  0  0  0  0  0  0  0
    2.7989   -1.6489   -3.5288 H   0  0  0  0  0  0  0  0  0  0  0  0
    5.5007    1.6509   -4.0595 H   0  0  0  0  0  0  0  0  0  0  0  0
    4.9954    1.6783   -6.4823 H   0  0  0  0  0  0  0  0  0  0  0  0
    6.7309   -0.0000   -2.2375 H   0  0  0  0  0  0  0  0  0  0  0  0
    4.0689    0.0001    2.1706 H   0  0  0  0  0  0  0  0  0  0  0  0
    0.6234    0.0000   -2.3448 H   0  0  0  0  0  0  0  0  0  0  0  0
  1  2  1  0
  2  3  2  0
  3  4  1  0
  4  5  2  0
  5  6  1  0
  6  7  2  0
  7  8  1  0
  8  9  2  0
  9 10  1  0
 10 11  2  0
 11 12  1  0
 12 13  2  0
 11 14  1  0
 14 15  2  0
 15 16  1  0
 16 17  1  0
 17 18  1  0
 18 19  1  0
 19 20  2  0
 19 21  1  0
 21 22  1  0
 22 23  3  0
 21 24  2  0
 24 25  1  0
 24 26  1  0
  7  2  1  0
 13  8  1  0
 26 14  1  0
 26 17  2  0
  1 27  1  0
  3 28  1  0
  4 29  1  0
  5 30  1  0
  6 31  1  0
  9 32  1  0
 10 33  1  0
 12 34  1  0
 13 35  1  0
 15 36  1  0
 18 37  1  0
 25 38  1  0
M  END
>  <_MoleculeID>  (129) 
smi14

>  <_InputIndex>  (129) 
14

>  <_InputSMILES>  (129) 
Oc1ccccc1-c1ccc(cc1)-c1csc2[nH]c(=O)c(C#N)c(O)c12

>  <_InputInChIKey>  (129) 
CTESJDQKVOEUOY-UHFFFAOYSA-N

>  <_SMILES>  (129) 
N#Cc1c(O)c2c(-c3ccc(-c4ccccc4O)cc3)csc2[nH]c1=O

>  <_InChIKey>  (129) 
CTESJDQKVOEUOY-UHFFFAOYSA-N

$$$$
smi14_conf2
     RDKit          3D

 38 41  0  0  0  0  0  0  0  0999 V2000
    3.7314    2.3512   -7.8783 O   0  0  0  0  0  0  0  0  0  0  0  0
    3.3874    1.1710   -8.4964 C   0  0  0  0  0  0  0  0  0  0  0  0
    3.0742    1.1462   -9.8577 C   0  0  0  0  0  0  0  0  0  0  0  0
    2.7236   -0.0531  -10.4952 C   0  0  0  0  0  0  0  0  0  0  0  0
    2.6685   -1.2723   -9.8022 C   0  0  0  0  0  0  0  0  0  0  0  0
    2.9761   -1.2072   -8.4295 C   0  0  0  0  0  0  0  0  0  0  0  0
    3.3260   -0.0194   -7.7728 C   0  0  0  0  0  0  0  0  0  0  0  0
    3.6278   -0.0192   -6.3689 C   0  0  0  0  0  0  0  0  0  0  0  0
    3.0231    0.9036   -5.5117 C   0  0  0  0  0  0  0  0  0  0  0  0
    3.3119    0.9095   -4.1391 C   0  0  0  0  0  0  0  0  0  0  0  0
    4.2152   -0.0001   -3.5678 C   0  0  0  0  0  0  0  0  0  0  0  0
    4.8163   -0.9055   -4.4634 C   0  0  0  0  0  0  0  0  0  0  0  0
    4.5439   -0.9266   -5.8381 C   0  0  0  0  0  0  0  0  0  0  0  0
    4.5157   -0.0000   -2.1677 C   0  0  0  0  0  0  0  0  0  0  0  0
    5.8087    0.0000   -1.6738 C   0  0  0  0  0  0  0  0  0  0  0  0
    5.8484    0.0001    0.0492 S   0  0  0  0  0  0  0  0  0  0  0  0
    4.1681    0.0000    0.1067 C   0  0  0  0  0  0  0  0  0  0  0  0
    3.5240    0.0000    1.3150 N   0  0  0  0  0  0  0  0  0  0  0  0
    2.1359    0.0000    1.3389 C   0  0  0  0  0  0  0  0  0  0  0  0
    1.4951   -0.0000    2.3903 O   0  0  0  0  0  0  0  0  0  0  0  0
    1.4150    0.0000    0.0000 C   0  0  0  0  0  0  0  0  0  0  0  0
    0.0000    0.0000    0.0000 C   0  0  0  0  0  0  0  0  0  0  0  0
   -1.1602   -0.0010   -0.0050 N   0  0  0  0  0  0  0  0  0  0  0  0
    2.1347    0.0000   -1.1454 C   0  0  0  0  0  0  0  0  0  0  0  0
    1.5924    0.0000   -2.4132 O   0  0  0  0  0  0  0  0  0  0  0  0
    3.5601    0.0000   -1.1165 C   0  0  0  0  0  0  0  0  0  0  0  0
    3.9153    2.1824   -6.9398 H   0  0  0  0  0  0  0  0  0  0  0  0
    3.0956    2.0634  -10.4418 H   0  0  0  0  0  0  0  0  0  0  0  0
    2.4868    0.0010  -11.5549 H   0  0  0  0  0  0  0  0  0  0  0  0
    2.3983   -2.2002  -10.2884 H   0  0  0  0  0  0  0  0  0  0  0  0
    2.9396   -2.1284   -7.8494 H   0  0  0  0  0  0  0  0  0  0  0  0
    2.3192    1.6349   -5.9024 H   0  0  0  0  0  0  0  0  0  0  0  0
    2.8098    1.6581   -3.5312 H   0  0  0  0  0  0  0  0  0  0  0  0
    5.5298   -1.6262   -4.0656 H   0  0  0  0  0  0  0  0  0  0  0  0
    5.0344   -1.6452   -6.4905 H   0  0  0  0  0  0  0  0  0  0  0  0
    6.7309   -0.0000   -2.2375 H   0  0  0  0  0  0  0  0  0  0  0  0
    4.0689    0.0001    2.1706 H   0  0  0  0  0  0  0  0  0  0  0  0
    0.6234    0.0000   -2.3448 H   0  0  0  0  0  0  0  0  0  0  0  0
  1  2  1  0
  2  3  2  0
  3  4  1  0
  4  5  2  0
  5  6  1  0
  6  7  2  0
  7  8  1  0
  8  9  2  0
  9 10  1  0
 10 11  2  0
 11 12  1  0
 12 13  2  0
 11 14  1  0
 14 15  2  0
 15 16  1  0
 16 17  1  0
 17 18  1  0
 18 19  1  0
 19 20  2  0
 19 21  1  0
 21 22  1  0
 22 23  3  0
 21 24  2  0
 24 25  1  0
 24 26  1  0
  7  2  1  0
 13  8  1  0
 26 14  1  0
 26 17  2  0
  1 27  1  0
  3 28  1  0
  4 29  1  0
  5 30  1  0
  6 31  1  0
  9 32  1  0
 10 33  1  0
 12 34  1  0
 13 35  1  0
 15 36  1  0
 18 37  1  0
 25 38  1  0
M  END
>  <_MoleculeID>  (130) 
smi14

>  <_InputIndex>  (130) 
14

>  <_InputSMILES>  (130) 
Oc1ccccc1-c1ccc(cc1)-c1csc2[nH]c(=O)c(C#N)c(O)c12

>  <_InputInChIKey>  (130) 
CTESJDQKVOEUOY-UHFFFAOYSA-N

>  <_SMILES>  (130) 
N#Cc1c(O)c2c(-c3ccc(-c4ccccc4O)cc3)csc2[nH]c1=O

>  <_InChIKey>  (130) 
CTESJDQKVOEUOY-UHFFFAOYSA-N

$$$$
smi14_conf3
     RDKit          3D

 38 41  0  0  0  0  0  0  0  0999 V2000
    0.9688   -0.0189   -7.2840 O   0  0  0  0  0  0  0  0  0  0  0  0
    1.9979   -0.0173   -8.1974 C   0  0  0  0  0  0  0  0  0  0  0  0
    1.7313   -0.0331   -9.5688 C   0  0  0  0  0  0  0  0  0  0  0  0
    2.7748   -0.0306  -10.5062 C   0  0  0  0  0  0  0  0  0  0  0  0
    4.1226   -0.0153  -10.1151 C   0  0  0  0  0  0  0  0  0  0  0  0
    4.3537   -0.0143   -8.7259 C   0  0  0  0  0  0  0  0  0  0  0  0
    3.3260   -0.0194   -7.7728 C   0  0  0  0  0  0  0  0  0  0  0  0
    3.6278   -0.0192   -6.3689 C   0  0  0  0  0  0  0  0  0  0  0  0
    3.0231    0.9036   -5.5117 C   0  0  0  0  0  0  0  0  0  0  0  0
    3.3119    0.9095   -4.1391 C   0  0  0  0  0  0  0  0  0  0  0  0
    4.2152   -0.0001   -3.5678 C   0  0  0  0  0  0  0  0  0  0  0  0
    4.8163   -0.9055   -4.4634 C   0  0  0  0  0  0  0  0  0  0  0  0
    4.5439   -0.9266   -5.8381 C   0  0  0  0  0  0  0  0  0  0  0  0
    4.5157   -0.0000   -2.1677 C   0  0  0  0  0  0  0  0  0  0  0  0
    5.8087    0.0000   -1.6738 C   0  0  0  0  0  0  0  0  0  0  0  0
    5.8484    0.0001    0.0492 S   0  0  0  0  0  0  0  0  0  0  0  0
    4.1681    0.0000    0.1067 C   0  0  0  0  0  0  0  0  0  0  0  0
    3.5240    0.0000    1.3150 N   0  0  0  0  0  0  0  0  0  0  0  0
    2.1359    0.0000    1.3389 C   0  0  0  0  0  0  0  0  0  0  0  0
    1.4951   -0.0000    2.3903 O   0  0  0  0  0  0  0  0  0  0  0  0
    1.4150    0.0000    0.0000 C   0  0  0  0  0  0  0  0  0  0  0  0
    0.0000    0.0000    0.0000 C   0  0  0  0  0  0  0  0  0  0  0  0
   -1.1602   -0.0010   -0.0050 N   0  0  0  0  0  0  0  0  0  0  0  0
    2.1347    0.0000   -1.1454 C   0  0  0  0  0  0  0  0  0  0  0  0
    1.5924    0.0000   -2.4132 O   0  0  0  0  0  0  0  0  0  0  0  0
    3.5601    0.0000   -1.1165 C   0  0  0  0  0  0  0  0  0  0  0  0
    1.3355   -0.0066   -6.3848 H   0  0  0  0  0  0  0  0  0  0  0  0
    0.7047   -0.0510   -9.9274 H   0  0  0  0  0  0  0  0  0  0  0  0
    2.4959   -0.0488  -11.5569 H   0  0  0  0  0  0  0  0  0  0  0  0
    4.9316   -0.0137  -10.8334 H   0  0  0  0  0  0  0  0  0  0  0  0
    5.3851   -0.0093   -8.3755 H   0  0  0  0  0  0  0  0  0  0  0  0
    2.3192    1.6349   -5.9024 H   0  0  0  0  0  0  0  0  0  0  0  0
    2.8098    1.6581   -3.5312 H   0  0  0  0  0  0  0  0  0  0  0  0
    5.5298   -1.6262   -4.0656 H   0  0  0  0  0  0  0  0  0  0  0  0
    5.0344   -1.6452   -6.4905 H   0  0  0  0  0  0  0  0  0  0  0  0
    6.7309   -0.0000   -2.2375 H   0  0  0  0  0  0  0  0  0  0  0  0
    4.0689    0.0001    2.1706 H   0  0  0  0  0  0  0  0  0  0  0  0
    0.6234    0.0000   -2.3448 H   0  0  0  0  0  0  0  0  0  0  0  0
  1  2  1  0
  2  3  2  0
  3  4  1  0
  4  5  2  0
  5  6  1  0
  6  7  2  0
  7  8  1  0
  8  9  2  0
  9 10  1  0
 10 11  2  0
 11 12  1  0
 12 13  2  0
 11 14  1  0
 14 15  2  0
 15 16  1  0
 16 17  1  0
 17 18  1  0
 18 19  1  0
 19 20  2  0
 19 21  1  0
 21 22  1  0
 22 23  3  0
 21 24  2  0
 24 25  1  0
 24 26  1  0
  7  2  1  0
 13  8  1  0
 26 14  1  0
 26 17  2  0
  1 27  1  0
  3 28  1  0
  4 29  1  0
  5 30  1  0
  6 31  1  0
  9 32  1  0
 10 33  1  0
 12 34  1  0
 13 35  1  0
 15 36  1  0
 18 37  1  0
 25 38  1  0
M  END
>  <_MoleculeID>  (131) 
smi14

>  <_InputIndex>  (131) 
14

>  <_InputSMILES>  (131) 
Oc1ccccc1-c1ccc(cc1)-c1csc2[nH]c(=O)c(C#N)c(O)c12

>  <_InputInChIKey>  (131) 
CTESJDQKVOEUOY-UHFFFAOYSA-N

>  <_SMILES>  (131) 
N#Cc1c(O)c2c(-c3ccc(-c4ccccc4O)cc3)csc2[nH]c1=O

>  <_InChIKey>  (131) 
CTESJDQKVOEUOY-UHFFFAOYSA-N

$$$$
smi14_conf4
     RDKit          3D

 38 41  0  0  0  0  0  0  0  0999 V2000
    3.7342   -2.3549   -7.8774 O   0  0  0  0  0  0  0  0  0  0  0  0
    3.3872   -1.1756   -8.4956 C   0  0  0  0  0  0  0  0  0  0  0  0
    3.1046   -1.1461   -9.8636 C   0  0  0  0  0  0  0  0  0  0  0  0
    2.7491    0.0519  -10.5007 C   0  0  0  0  0  0  0  0  0  0  0  0
    2.6642    1.2661   -9.8021 C   0  0  0  0  0  0  0  0  0  0  0  0
    2.9697    1.2015   -8.4289 C   0  0  0  0  0  0  0  0  0  0  0  0
    3.3295    0.0159   -7.7736 C   0  0  0  0  0  0  0  0  0  0  0  0
    3.6306    0.0164   -6.3695 C   0  0  0  0  0  0  0  0  0  0  0  0
    3.0223   -0.9032   -5.5115 C   0  0  0  0  0  0  0  0  0  0  0  0
    3.3120   -0.9097   -4.1390 C   0  0  0  0  0  0  0  0  0  0  0  0
    4.2152   -0.0001   -3.5678 C   0  0  0  0  0  0  0  0  0  0  0  0
    4.7980    0.9210   -4.4595 C   0  0  0  0  0  0  0  0  0  0  0  0
    4.5204    0.9463   -5.8331 C   0  0  0  0  0  0  0  0  0  0  0  0
    4.5157   -0.0000   -2.1677 C   0  0  0  0  0  0  0  0  0  0  0  0
    5.8087    0.0000   -1.6738 C   0  0  0  0  0  0  0  0  0  0  0  0
    5.8484    0.0001    0.0492 S   0  0  0  0  0  0  0  0  0  0  0  0
    4.1681    0.0000    0.1067 C   0  0  0  0  0  0  0  0  0  0  0  0
    3.5240    0.0000    1.3150 N   0  0  0  0  0  0  0  0  0  0  0  0
    2.1359    0.0000    1.3389 C   0  0  0  0  0  0  0  0  0  0  0  0
    1.4951   -0.0000    2.3903 O   0  0  0  0  0  0  0  0  0  0  0  0
    1.4150    0.0000    0.0000 C   0  0  0  0  0  0  0  0  0  0  0  0
    0.0000    0.0000    0.0000 C   0  0  0  0  0  0  0  0  0  0  0  0
   -1.1602   -0.0010   -0.0050 N   0  0  0  0  0  0  0  0  0  0  0  0
    2.1347    0.0000   -1.1454 C   0  0  0  0  0  0  0  0  0  0  0  0
    1.5924    0.0000   -2.4132 O   0  0  0  0  0  0  0  0  0  0  0  0
    3.5601    0.0000   -1.1165 C   0  0  0  0  0  0  0  0  0  0  0  0
    3.8943   -2.1898   -6.9339 H   0  0  0  0  0  0  0  0  0  0  0  0
    3.1606   -2.0574  -10.4545 H   0  0  0  0  0  0  0  0  0  0  0  0
    2.5476    0.0036  -11.5680 H   0  0  0  0  0  0  0  0  0  0  0  0
    2.3910    2.1933  -10.2882 H   0  0  0  0  0  0  0  0  0  0  0  0
    2.9235    2.1213   -7.8472 H   0  0  0  0  0  0  0  0  0  0  0  0
    2.3099   -1.6272   -5.9002 H   0  0  0  0  0  0  0  0  0  0  0  0
    2.7989   -1.6489   -3.5288 H   0  0  0  0  0  0  0  0  0  0  0  0
    5.5007    1.6509   -4.0595 H   0  0  0  0  0  0  0  0  0  0  0  0
    4.9954    1.6783   -6.4823 H   0  0  0  0  0  0  0  0  0  0  0  0
    6.7309   -0.0000   -2.2375 H   0  0  0  0  0  0  0  0  0  0  0  0
    4.0689    0.0001    2.1706 H   0  0  0  0  0  0  0  0  0  0  0  0
    0.6234    0.0000   -2.3448 H   0  0  0  0  0  0  0  0  0  0  0  0
  1  2  1  0
  2  3  2  0
  3  4  1  0
  4  5  2  0
  5  6  1  0
  6  7  2  0
  7  8  1  0
  8  9  2  0
  9 10  1  0
 10 11  2  0
 11 12  1  0
 12 13  2  0
 11 14  1  0
 14 15  2  0
 15 16  1  0
 16 17  1  0
 17 18  1  0
 18 19  1  0
 19 20  2  0
 19 21  1  0
 21 22  1  0
 22 23  3  0
 21 24  2  0
 24 25  1  0
 24 26  1  0
  7  2  1  0
 13  8  1  0
 26 14  1  0
 26 17  2  0
  1 27  1  0
  3 28  1  0
  4 29  1  0
  5 30  1  0
  6 31  1  0
  9 32  1  0
 10 33  1  0
 12 34  1  0
 13 35  1  0
 15 36  1  0
 18 37  1  0
 25 38  1  0
M  END
>  <_MoleculeID>  (132) 
smi14

>  <_InputIndex>  (132) 
14

>  <_InputSMILES>  (132) 
Oc1ccccc1-c1ccc(cc1)-c1csc2[nH]c(=O)c(C#N)c(O)c12

>  <_InputInChIKey>  (132) 
CTESJDQKVOEUOY-UHFFFAOYSA-N

>  <_SMILES>  (132) 
N#Cc1c(O)c2c(-c3ccc(-c4ccccc4O)cc3)csc2[nH]c1=O

>  <_InChIKey>  (132) 
CTESJDQKVOEUOY-UHFFFAOYSA-N

$$$$
smi14_conf5
     RDKit          3D

 38 41  0  0  0  0  0  0  0  0999 V2000
    2.8876   -2.3517   -7.6969 O   0  0  0  0  0  0  0  0  0  0  0  0
    2.9476   -1.1715   -8.4019 C   0  0  0  0  0  0  0  0  0  0  0  0
    2.6746   -1.1469   -9.7719 C   0  0  0  0  0  0  0  0  0  0  0  0
    2.7327    0.0524  -10.4972 C   0  0  0  0  0  0  0  0  0  0  0  0
    3.0673    1.2716   -9.8880 C   0  0  0  0  0  0  0  0  0  0  0  0
    3.3501    1.2066   -8.5099 C   0  0  0  0  0  0  0  0  0  0  0  0
    3.3005    0.0189   -7.7674 C   0  0  0  0  0  0  0  0  0  0  0  0
    3.6014    0.0188   -6.3633 C   0  0  0  0  0  0  0  0  0  0  0  0
    4.5046   -0.9040   -5.8297 C   0  0  0  0  0  0  0  0  0  0  0  0
    4.8045   -0.9097   -4.4594 C   0  0  0  0  0  0  0  0  0  0  0  0
    4.2152   -0.0001   -3.5678 C   0  0  0  0  0  0  0  0  0  0  0  0
    3.2995    0.9053   -4.1379 C   0  0  0  0  0  0  0  0  0  0  0  0
    2.9839    0.9262   -5.5033 C   0  0  0  0  0  0  0  0  0  0  0  0
    4.5157   -0.0000   -2.1677 C   0  0  0  0  0  0  0  0  0  0  0  0
    5.8087    0.0000   -1.6738 C   0  0  0  0  0  0  0  0  0  0  0  0
    5.8484    0.0001    0.0492 S   0  0  0  0  0  0  0  0  0  0  0  0
    4.1681    0.0000    0.1067 C   0  0  0  0  0  0  0  0  0  0  0  0
    3.5240    0.0000    1.3150 N   0  0  0  0  0  0  0  0  0  0  0  0
    2.1359    0.0000    1.3389 C   0  0  0  0  0  0  0  0  0  0  0  0
    1.4951   -0.0000    2.3903 O   0  0  0  0  0  0  0  0  0  0  0  0
    1.4150    0.0000    0.0000 C   0  0  0  0  0  0  0  0  0  0  0  0
    0.0000    0.0000    0.0000 C   0  0  0  0  0  0  0  0  0  0  0  0
   -1.1602   -0.0010   -0.0050 N   0  0  0  0  0  0  0  0  0  0  0  0
    2.1347    0.0000   -1.1454 C   0  0  0  0  0  0  0  0  0  0  0  0
    1.5924    0.0000   -2.4132 O   0  0  0  0  0  0  0  0  0  0  0  0
    3.5601    0.0000   -1.1165 C   0  0  0  0  0  0  0  0  0  0  0  0
    3.1050   -2.1828   -6.7657 H   0  0  0  0  0  0  0  0  0  0  0  0
    2.4154   -2.0641  -10.2956 H   0  0  0  0  0  0  0  0  0  0  0  0
    2.5138   -0.0018  -11.5607 H   0  0  0  0  0  0  0  0  0  0  0  0
    3.1141    2.1995  -10.4423 H   0  0  0  0  0  0  0  0  0  0  0  0
    3.6214    2.1279   -7.9959 H   0  0  0  0  0  0  0  0  0  0  0  0
    4.9862   -1.6353   -6.4747 H   0  0  0  0  0  0  0  0  0  0  0  0
    5.5119   -1.6582   -4.1111 H   0  0  0  0  0  0  0  0  0  0  0  0
    2.8121    1.6260   -3.4824 H   0  0  0  0  0  0  0  0  0  0  0  0
    2.2688    1.6448   -5.8971 H   0  0  0  0  0  0  0  0  0  0  0  0
    6.7309   -0.0000   -2.2375 H   0  0  0  0  0  0  0  0  0  0  0  0
    4.0689    0.0001    2.1706 H   0  0  0  0  0  0  0  0  0  0  0  0
    0.6234    0.0000   -2.3448 H   0  0  0  0  0  0  0  0  0  0  0  0
  1  2  1  0
  2  3  2  0
  3  4  1  0
  4  5  2  0
  5  6  1  0
  6  7  2  0
  7  8  1  0
  8  9  2  0
  9 10  1  0
 10 11  2  0
 11 12  1  0
 12 13  2  0
 11 14  1  0
 14 15  2  0
 15 16  1  0
 16 17  1  0
 17 18  1  0
 18 19  1  0
 19 20  2  0
 19 21  1  0
 21 22  1  0
 22 23  3  0
 21 24  2  0
 24 25  1  0
 24 26  1  0
  7  2  1  0
 13  8  1  0
 26 14  1  0
 26 17  2  0
  1 27  1  0
  3 28  1  0
  4 29  1  0
  5 30  1  0
  6 31  1  0
  9 32  1  0
 10 33  1  0
 12 34  1  0
 13 35  1  0
 15 36  1  0
 18 37  1  0
 25 38  1  0
M  END
>  <_MoleculeID>  (133) 
smi14

>  <_InputIndex>  (133) 
14

>  <_InputSMILES>  (133) 
Oc1ccccc1-c1ccc(cc1)-c1csc2[nH]c(=O)c(C#N)c(O)c12

>  <_InputInChIKey>  (133) 
CTESJDQKVOEUOY-UHFFFAOYSA-N

>  <_SMILES>  (133) 
N#Cc1c(O)c2c(-c3ccc(-c4ccccc4O)cc3)csc2[nH]c1=O

>  <_InChIKey>  (133) 
CTESJDQKVOEUOY-UHFFFAOYSA-N

$$$$
smi14_conf6
     RDKit          3D

 38 41  0  0  0  0  0  0  0  0999 V2000
    5.6507    0.0184   -8.2889 O   0  0  0  0  0  0  0  0  0  0  0  0
    4.3374    0.0168   -8.6996 C   0  0  0  0  0  0  0  0  0  0  0  0
    4.0177    0.0324  -10.0596 C   0  0  0  0  0  0  0  0  0  0  0  0
    2.6814    0.0299  -10.4862 C   0  0  0  0  0  0  0  0  0  0  0  0
    1.6129    0.0146   -9.5764 C   0  0  0  0  0  0  0  0  0  0  0  0
    1.9723    0.0137   -8.2147 C   0  0  0  0  0  0  0  0  0  0  0  0
    3.3005    0.0189   -7.7674 C   0  0  0  0  0  0  0  0  0  0  0  0
    3.6014    0.0188   -6.3633 C   0  0  0  0  0  0  0  0  0  0  0  0
    4.5046   -0.9040   -5.8297 C   0  0  0  0  0  0  0  0  0  0  0  0
    4.8045   -0.9097   -4.4594 C   0  0  0  0  0  0  0  0  0  0  0  0
    4.2152   -0.0001   -3.5678 C   0  0  0  0  0  0  0  0  0  0  0  0
    3.2995    0.9053   -4.1379 C   0  0  0  0  0  0  0  0  0  0  0  0
    2.9839    0.9262   -5.5033 C   0  0  0  0  0  0  0  0  0  0  0  0
    4.5157   -0.0000   -2.1677 C   0  0  0  0  0  0  0  0  0  0  0  0
    5.8087    0.0000   -1.6738 C   0  0  0  0  0  0  0  0  0  0  0  0
    5.8484    0.0001    0.0492 S   0  0  0  0  0  0  0  0  0  0  0  0
    4.1681    0.0000    0.1067 C   0  0  0  0  0  0  0  0  0  0  0  0
    3.5240    0.0000    1.3150 N   0  0  0  0  0  0  0  0  0  0  0  0
    2.1359   -0.0000    1.3389 C   0  0  0  0  0  0  0  0  0  0  0  0
    1.4951   -0.0000    2.3903 O   0  0  0  0  0  0  0  0  0  0  0  0
    1.4150   -0.0000    0.0000 C   0  0  0  0  0  0  0  0  0  0  0  0
    0.0000    0.0000    0.0000 C   0  0  0  0  0  0  0  0  0  0  0  0
   -1.1602   -0.0010   -0.0050 N   0  0  0  0  0  0  0  0  0  0  0  0
    2.1347    0.0000   -1.1454 C   0  0  0  0  0  0  0  0  0  0  0  0
    1.5924    0.0000   -2.4132 O   0  0  0  0  0  0  0  0  0  0  0  0
    3.5601    0.0000   -1.1165 C   0  0  0  0  0  0  0  0  0  0  0  0
    5.6853    0.0062   -7.3184 H   0  0  0  0  0  0  0  0  0  0  0  0
    4.8067    0.0503  -10.8079 H   0  0  0  0  0  0  0  0  0  0  0  0
    2.5047    0.0480  -11.5588 H   0  0  0  0  0  0  0  0  0  0  0  0
    0.5804    0.0130   -9.8995 H   0  0  0  0  0  0  0  0  0  0  0  0
    1.1755    0.0088   -7.4720 H   0  0  0  0  0  0  0  0  0  0  0  0
    4.9862   -1.6353   -6.4747 H   0  0  0  0  0  0  0  0  0  0  0  0
    5.5119   -1.6582   -4.1111 H   0  0  0  0  0  0  0  0  0  0  0  0
    2.8121    1.6260   -3.4824 H   0  0  0  0  0  0  0  0  0  0  0  0
    2.2688    1.6448   -5.8971 H   0  0  0  0  0  0  0  0  0  0  0  0
    6.7309   -0.0000   -2.2375 H   0  0  0  0  0  0  0  0  0  0  0  0
    4.0689    0.0001    2.1706 H   0  0  0  0  0  0  0  0  0  0  0  0
    0.6234    0.0000   -2.3448 H   0  0  0  0  0  0  0  0  0  0  0  0
  1  2  1  0
  2  3  2  0
  3  4  1  0
  4  5  2  0
  5  6  1  0
  6  7  2  0
  7  8  1  0
  8  9  2  0
  9 10  1  0
 10 11  2  0
 11 12  1  0
 12 13  2  0
 11 14  1  0
 14 15  2  0
 15 16  1  0
 16 17  1  0
 17 18  1  0
 18 19  1  0
 19 20  2  0
 19 21  1  0
 21 22  1  0
 22 23  3  0
 21 24  2  0
 24 25  1  0
 24 26  1  0
  7  2  1  0
 13  8  1  0
 26 14  1  0
 26 17  2  0
  1 27  1  0
  3 28  1  0
  4 29  1  0
  5 30  1  0
  6 31  1  0
  9 32  1  0
 10 33  1  0
 12 34  1  0
 13 35  1  0
 15 36  1  0
 18 37  1  0
 25 38  1  0
M  END
>  <_MoleculeID>  (134) 
smi14

>  <_InputIndex>  (134) 
14

>  <_InputSMILES>  (134) 
Oc1ccccc1-c1ccc(cc1)-c1csc2[nH]c(=O)c(C#N)c(O)c12

>  <_InputInChIKey>  (134) 
CTESJDQKVOEUOY-UHFFFAOYSA-N

>  <_SMILES>  (134) 
N#Cc1c(O)c2c(-c3ccc(-c4ccccc4O)cc3)csc2[nH]c1=O

>  <_InChIKey>  (134) 
CTESJDQKVOEUOY-UHFFFAOYSA-N

$$$$
smi14_conf7
     RDKit          3D

 38 41  0  0  0  0  0  0  0  0999 V2000
    2.9174    2.3867   -7.7039 O   0  0  0  0  0  0  0  0  0  0  0  0
    2.9806    1.2069   -8.4093 C   0  0  0  0  0  0  0  0  0  0  0  0
    2.6774    1.1765   -9.7728 C   0  0  0  0  0  0  0  0  0  0  0  0
    2.7405   -0.0220  -10.4989 C   0  0  0  0  0  0  0  0  0  0  0  0
    3.1046   -1.2358   -9.8957 C   0  0  0  0  0  0  0  0  0  0  0  0
    3.3891   -1.1702   -8.5180 C   0  0  0  0  0  0  0  0  0  0  0  0
    3.3295    0.0159   -7.7736 C   0  0  0  0  0  0  0  0  0  0  0  0
    3.6306    0.0164   -6.3695 C   0  0  0  0  0  0  0  0  0  0  0  0
    3.0223   -0.9032   -5.5115 C   0  0  0  0  0  0  0  0  0  0  0  0
    3.3120   -0.9097   -4.1390 C   0  0  0  0  0  0  0  0  0  0  0  0
    4.2152   -0.0001   -3.5678 C   0  0  0  0  0  0  0  0  0  0  0  0
    4.7980    0.9210   -4.4595 C   0  0  0  0  0  0  0  0  0  0  0  0
    4.5204    0.9463   -5.8331 C   0  0  0  0  0  0  0  0  0  0  0  0
    4.5157   -0.0000   -2.1677 C   0  0  0  0  0  0  0  0  0  0  0  0
    5.8087    0.0000   -1.6738 C   0  0  0  0  0  0  0  0  0  0  0  0
    5.8484    0.0001    0.0492 S   0  0  0  0  0  0  0  0  0  0  0  0
    4.1681    0.0000    0.1067 C   0  0  0  0  0  0  0  0  0  0  0  0
    3.5240    0.0000    1.3150 N   0  0  0  0  0  0  0  0  0  0  0  0
    2.1359    0.0000    1.3389 C   0  0  0  0  0  0  0  0  0  0  0  0
    1.4951   -0.0000    2.3903 O   0  0  0  0  0  0  0  0  0  0  0  0
    1.4150    0.0000    0.0000 C   0  0  0  0  0  0  0  0  0  0  0  0
    0.0000    0.0000    0.0000 C   0  0  0  0  0  0  0  0  0  0  0  0
   -1.1602   -0.0010   -0.0050 N   0  0  0  0  0  0  0  0  0  0  0  0
    2.1347    0.0000   -1.1454 C   0  0  0  0  0  0  0  0  0  0  0  0
    1.5924    0.0000   -2.4132 O   0  0  0  0  0  0  0  0  0  0  0  0
    3.5601    0.0000   -1.1165 C   0  0  0  0  0  0  0  0  0  0  0  0
    3.1584    2.2222   -6.7777 H   0  0  0  0  0  0  0  0  0  0  0  0
    2.3839    2.0874  -10.2894 H   0  0  0  0  0  0  0  0  0  0  0  0
    2.4867    0.0255  -11.5549 H   0  0  0  0  0  0  0  0  0  0  0  0
    3.1546   -2.1633  -10.4504 H   0  0  0  0  0  0  0  0  0  0  0  0
    3.6699   -2.0896   -8.0058 H   0  0  0  0  0  0  0  0  0  0  0  0
    2.3099   -1.6272   -5.9002 H   0  0  0  0  0  0  0  0  0  0  0  0
    2.7989   -1.6489   -3.5288 H   0  0  0  0  0  0  0  0  0  0  0  0
    5.5007    1.6509   -4.0595 H   0  0  0  0  0  0  0  0  0  0  0  0
    4.9954    1.6783   -6.4823 H   0  0  0  0  0  0  0  0  0  0  0  0
    6.7309   -0.0000   -2.2375 H   0  0  0  0  0  0  0  0  0  0  0  0
    4.0689    0.0001    2.1706 H   0  0  0  0  0  0  0  0  0  0  0  0
    0.6234    0.0000   -2.3448 H   0  0  0  0  0  0  0  0  0  0  0  0
  1  2  1  0
  2  3  2  0
  3  4  1  0
  4  5  2  0
  5  6  1  0
  6  7  2  0
  7  8  1  0
  8  9  2  0
  9 10  1  0
 10 11  2  0
 11 12  1  0
 12 13  2  0
 11 14  1  0
 14 15  2  0
 15 16  1  0
 16 17  1  0
 17 18  1  0
 18 19  1  0
 19 20  2  0
 19 21  1  0
 21 22  1  0
 22 23  3  0
 21 24  2  0
 24 25  1  0
 24 26  1  0
  7  2  1  0
 13  8  1  0
 26 14  1  0
 26 17  2  0
  1 27  1  0
  3 28  1  0
  4 29  1  0
  5 30  1  0
  6 31  1  0
  9 32  1  0
 10 33  1  0
 12 34  1  0
 13 35  1  0
 15 36  1  0
 18 37  1  0
 25 38  1  0
M  END
>  <_MoleculeID>  (135) 
smi14

>  <_InputIndex>  (135) 
14

>  <_InputSMILES>  (135) 
Oc1ccccc1-c1ccc(cc1)-c1csc2[nH]c(=O)c(C#N)c(O)c12

>  <_InputInChIKey>  (135) 
CTESJDQKVOEUOY-UHFFFAOYSA-N

>  <_SMILES>  (135) 
N#Cc1c(O)c2c(-c3ccc(-c4ccccc4O)cc3)csc2[nH]c1=O

>  <_InChIKey>  (135) 
CTESJDQKVOEUOY-UHFFFAOYSA-N

$$$$
smi15_conf0
     RDKit          3D

 41 43  0  0  0  0  0  0  0  0999 V2000
    5.5444   -0.0001   -2.3941 C   0  0  0  0  0  0  0  0  0  0  0  0
    4.1172    0.0118   -2.4540 O   0  0  0  0  0  0  0  0  0  0  0  0
    3.4367    0.0083   -1.2581 C   0  0  0  0  0  0  0  0  0  0  0  0
    4.1302   -0.0063   -0.0453 C   0  0  0  0  0  0  0  0  0  0  0  0
    3.4437   -0.0089    1.1779 C   0  0  0  0  0  0  0  0  0  0  0  0
    4.2163   -0.0306    2.3392 N   0  0  0  0  0  0  0  0  0  0  0  0
    3.7452   -0.0458    3.6418 C   0  0  0  0  0  0  0  0  0  0  0  0
    2.5851   -0.0432    4.0357 O   0  0  0  0  0  0  0  0  0  0  0  0
    4.7793   -0.1211    4.6164 C   0  0  0  0  0  0  0  0  0  0  0  0
    4.7967   -0.1974    5.9934 C   0  0  0  0  0  0  0  0  0  0  0  0
    6.1596   -0.2441    6.3714 C   0  0  0  0  0  0  0  0  0  0  0  0
    6.8825   -0.1960    5.2030 C   0  0  0  0  0  0  0  0  0  0  0  0
    6.0531   -0.1232    4.1298 O   0  0  0  0  0  0  0  0  0  0  0  0
    8.2867   -0.2077    4.9025 C   0  0  0  0  0  0  0  0  0  0  0  0
    8.7313   -0.1467    3.5794 C   0  0  0  0  0  0  0  0  0  0  0  0
   10.1012   -0.1566    3.2779 C   0  0  0  0  0  0  0  0  0  0  0  0
   11.0803   -0.2306    4.2807 C   0  0  0  0  0  0  0  0  0  0  0  0
   12.7632   -0.2440    3.9204 Cl  0  0  0  0  0  0  0  0  0  0  0  0
   10.5958   -0.3053    5.6009 C   0  0  0  0  0  0  0  0  0  0  0  0
    9.2319   -0.2996    5.9235 C   0  0  0  0  0  0  0  0  0  0  0  0
    2.0417    0.0000    1.2410 C   0  0  0  0  0  0  0  0  0  0  0  0
    1.3760   -0.0000    0.0000 C   0  0  0  0  0  0  0  0  0  0  0  0
    0.0000   -0.0000    0.0000 O   0  0  0  0  0  0  0  0  0  0  0  0
   -0.6538   -0.0000    1.2702 C   0  0  0  0  0  0  0  0  0  0  0  0
    2.0425   -0.0001   -1.2329 C   0  0  0  0  0  0  0  0  0  0  0  0
    5.9324    0.0044   -3.4162 H   0  0  0  0  0  0  0  0  0  0  0  0
    5.8931   -0.9043   -1.8855 H   0  0  0  0  0  0  0  0  0  0  0  0
    5.9075    0.8907   -1.8721 H   0  0  0  0  0  0  0  0  0  0  0  0
    5.2177   -0.0192   -0.0360 H   0  0  0  0  0  0  0  0  0  0  0  0
    5.2228   -0.0829    2.1961 H   0  0  0  0  0  0  0  0  0  0  0  0
    3.9333   -0.2146    6.6433 H   0  0  0  0  0  0  0  0  0  0  0  0
    6.5642   -0.3053    7.3712 H   0  0  0  0  0  0  0  0  0  0  0  0
    8.0152   -0.0937    2.7626 H   0  0  0  0  0  0  0  0  0  0  0  0
   10.3767   -0.1120    2.2272 H   0  0  0  0  0  0  0  0  0  0  0  0
   11.3198   -0.3711    6.4121 H   0  0  0  0  0  0  0  0  0  0  0  0
    8.9060   -0.3601    6.9593 H   0  0  0  0  0  0  0  0  0  0  0  0
    1.5067   -0.0024    2.1814 H   0  0  0  0  0  0  0  0  0  0  0  0
   -1.7340    0.0000    1.1018 H   0  0  0  0  0  0  0  0  0  0  0  0
   -0.3819    0.8975    1.8343 H   0  0  0  0  0  0  0  0  0  0  0  0
   -0.3819   -0.8975    1.8343 H   0  0  0  0  0  0  0  0  0  0  0  0
    1.4841   -0.0009   -2.1662 H   0  0  0  0  0  0  0  0  0  0  0  0
  1  2  1  0
  2  3  1  0
  3  4  2  0
  4  5  1  0
  5  6  1  0
  6  7  1  0
  7  8  2  0
  7  9  1  0
  9 10  2  0
 10 11  1  0
 11 12  2  0
 12 13  1  0
 12 14  1  0
 14 15  2  0
 15 16  1  0
 16 17  2  0
 17 18  1  0
 17 19  1  0
 19 20  2  0
  5 21  2  0
 21 22  1  0
 22 23  1  0
 23 24  1  0
 22 25  2  0
 25  3  1  0
 13  9  1  0
 20 14  1  0
  1 26  1  0
  1 27  1  0
  1 28  1  0
  4 29  1  0
  6 30  1  0
 10 31  1  0
 11 32  1  0
 15 33  1  0
 16 34  1  0
 19 35  1  0
 20 36  1  0
 21 37  1  0
 24 38  1  0
 24 39  1  0
 24 40  1  0
 25 41  1  0
M  END
>  <_MoleculeID>  (136) 
smi15

>  <_InputIndex>  (136) 
15

>  <_InputSMILES>  (136) 
COc1cc(NC(=O)c2ccc(o2)-c2ccc(Cl)cc2)cc(OC)c1

>  <_InputInChIKey>  (136) 
VHKBTPQDHDSBSP-UHFFFAOYSA-N

>  <_SMILES>  (136) 
COc1cc(NC(=O)c2ccc(-c3ccc(Cl)cc3)o2)cc(OC)c1

>  <_InChIKey>  (136) 
VHKBTPQDHDSBSP-UHFFFAOYSA-N

$$$$
smi15_conf1
     RDKit          3D

 41 43  0  0  0  0  0  0  0  0999 V2000
    5.5444    2.3941   -0.0001 C   0  0  0  0  0  0  0  0  0  0  0  0
    4.1172    2.4540    0.0118 O   0  0  0  0  0  0  0  0  0  0  0  0
    3.4367    1.2581    0.0083 C   0  0  0  0  0  0  0  0  0  0  0  0
    4.1302    0.0453   -0.0063 C   0  0  0  0  0  0  0  0  0  0  0  0
    3.4437   -1.1779   -0.0089 C   0  0  0  0  0  0  0  0  0  0  0  0
    4.2163   -2.3392   -0.0306 N   0  0  0  0  0  0  0  0  0  0  0  0
    3.7452   -3.6418   -0.0458 C   0  0  0  0  0  0  0  0  0  0  0  0
    2.5851   -4.0357   -0.0432 O   0  0  0  0  0  0  0  0  0  0  0  0
    4.7793   -4.6164   -0.1211 C   0  0  0  0  0  0  0  0  0  0  0  0
    6.1569   -4.5541   -0.1465 C   0  0  0  0  0  0  0  0  0  0  0  0
    6.6133   -5.8908   -0.2325 C   0  0  0  0  0  0  0  0  0  0  0  0
    5.4872   -6.6793   -0.2511 C   0  0  0  0  0  0  0  0  0  0  0  0
    4.3666   -5.9147   -0.1819 O   0  0  0  0  0  0  0  0  0  0  0  0
    5.2680   -8.0965   -0.3258 C   0  0  0  0  0  0  0  0  0  0  0  0
    3.9712   -8.6164   -0.3247 C   0  0  0  0  0  0  0  0  0  0  0  0
    3.7488   -9.9995   -0.3984 C   0  0  0  0  0  0  0  0  0  0  0  0
    4.8078  -10.9175   -0.4730 C   0  0  0  0  0  0  0  0  0  0  0  0
    4.5448  -12.6159   -0.5630 Cl  0  0  0  0  0  0  0  0  0  0  0  0
    6.1004  -10.3590   -0.4572 C   0  0  0  0  0  0  0  0  0  0  0  0
    6.3445   -8.9809   -0.3813 C   0  0  0  0  0  0  0  0  0  0  0  0
    2.0417   -1.2410    0.0000 C   0  0  0  0  0  0  0  0  0  0  0  0
    1.3760   -0.0000    0.0000 C   0  0  0  0  0  0  0  0  0  0  0  0
    0.0000   -0.0000    0.0000 O   0  0  0  0  0  0  0  0  0  0  0  0
   -0.6538   -0.0000    1.2702 C   0  0  0  0  0  0  0  0  0  0  0  0
    2.0425    1.2329   -0.0001 C   0  0  0  0  0  0  0  0  0  0  0  0
    5.9324    3.4162    0.0044 H   0  0  0  0  0  0  0  0  0  0  0  0
    5.8931    1.8855   -0.9043 H   0  0  0  0  0  0  0  0  0  0  0  0
    5.9075    1.8721    0.8907 H   0  0  0  0  0  0  0  0  0  0  0  0
    5.2177    0.0360   -0.0192 H   0  0  0  0  0  0  0  0  0  0  0  0
    5.2228   -2.1961   -0.0829 H   0  0  0  0  0  0  0  0  0  0  0  0
    6.7565   -3.6558   -0.1101 H   0  0  0  0  0  0  0  0  0  0  0  0
    7.6361   -6.2363   -0.2753 H   0  0  0  0  0  0  0  0  0  0  0  0
    3.1137   -7.9503   -0.2630 H   0  0  0  0  0  0  0  0  0  0  0  0
    2.7149  -10.3354   -0.3878 H   0  0  0  0  0  0  0  0  0  0  0  0
    6.9538  -11.0342   -0.5064 H   0  0  0  0  0  0  0  0  0  0  0  0
    7.3619   -8.5968   -0.3712 H   0  0  0  0  0  0  0  0  0  0  0  0
    1.5067   -2.1814   -0.0024 H   0  0  0  0  0  0  0  0  0  0  0  0
   -1.7340    0.0000    1.1018 H   0  0  0  0  0  0  0  0  0  0  0  0
   -0.3819    0.8975    1.8343 H   0  0  0  0  0  0  0  0  0  0  0  0
   -0.3819   -0.8975    1.8343 H   0  0  0  0  0  0  0  0  0  0  0  0
    1.4841    2.1662   -0.0009 H   0  0  0  0  0  0  0  0  0  0  0  0
  1  2  1  0
  2  3  1  0
  3  4  2  0
  4  5  1  0
  5  6  1  0
  6  7  1  0
  7  8  2  0
  7  9  1  0
  9 10  2  0
 10 11  1  0
 11 12  2  0
 12 13  1  0
 12 14  1  0
 14 15  2  0
 15 16  1  0
 16 17  2  0
 17 18  1  0
 17 19  1  0
 19 20  2  0
  5 21  2  0
 21 22  1  0
 22 23  1  0
 23 24  1  0
 22 25  2  0
 25  3  1  0
 13  9  1  0
 20 14  1  0
  1 26  1  0
  1 27  1  0
  1 28  1  0
  4 29  1  0
  6 30  1  0
 10 31  1  0
 11 32  1  0
 15 33  1  0
 16 34  1  0
 19 35  1  0
 20 36  1  0
 21 37  1  0
 24 38  1  0
 24 39  1  0
 24 40  1  0
 25 41  1  0
M  END
>  <_MoleculeID>  (137) 
smi15

>  <_InputIndex>  (137) 
15

>  <_InputSMILES>  (137) 
COc1cc(NC(=O)c2ccc(o2)-c2ccc(Cl)cc2)cc(OC)c1

>  <_InputInChIKey>  (137) 
VHKBTPQDHDSBSP-UHFFFAOYSA-N

>  <_SMILES>  (137) 
COc1cc(NC(=O)c2ccc(-c3ccc(Cl)cc3)o2)cc(OC)c1

>  <_InChIKey>  (137) 
VHKBTPQDHDSBSP-UHFFFAOYSA-N

$$$$
smi15_conf2
     RDKit          3D

 41 43  0  0  0  0  0  0  0  0999 V2000
    4.4507   -1.2835    3.0128 C   0  0  0  0  0  0  0  0  0  0  0  0
    4.1172   -0.0118    2.4540 O   0  0  0  0  0  0  0  0  0  0  0  0
    3.4367   -0.0083    1.2581 C   0  0  0  0  0  0  0  0  0  0  0  0
    4.1302    0.0063    0.0453 C   0  0  0  0  0  0  0  0  0  0  0  0
    3.4437    0.0089   -1.1779 C   0  0  0  0  0  0  0  0  0  0  0  0
    4.2163    0.0306   -2.3392 N   0  0  0  0  0  0  0  0  0  0  0  0
    3.7452    0.0458   -3.6418 C   0  0  0  0  0  0  0  0  0  0  0  0
    2.5851    0.0432   -4.0357 O   0  0  0  0  0  0  0  0  0  0  0  0
    4.7793    0.1211   -4.6164 C   0  0  0  0  0  0  0  0  0  0  0  0
    4.7967    0.1974   -5.9934 C   0  0  0  0  0  0  0  0  0  0  0  0
    6.1596    0.2441   -6.3714 C   0  0  0  0  0  0  0  0  0  0  0  0
    6.8825    0.1960   -5.2030 C   0  0  0  0  0  0  0  0  0  0  0  0
    6.0531    0.1232   -4.1298 O   0  0  0  0  0  0  0  0  0  0  0  0
    8.2867    0.2077   -4.9025 C   0  0  0  0  0  0  0  0  0  0  0  0
    8.7313    0.1467   -3.5794 C   0  0  0  0  0  0  0  0  0  0  0  0
   10.1012    0.1566   -3.2779 C   0  0  0  0  0  0  0  0  0  0  0  0
   11.0803    0.2306   -4.2807 C   0  0  0  0  0  0  0  0  0  0  0  0
   12.7632    0.2440   -3.9204 Cl  0  0  0  0  0  0  0  0  0  0  0  0
   10.5958    0.3053   -5.6009 C   0  0  0  0  0  0  0  0  0  0  0  0
    9.2319    0.2996   -5.9235 C   0  0  0  0  0  0  0  0  0  0  0  0
    2.0417   -0.0000   -1.2410 C   0  0  0  0  0  0  0  0  0  0  0  0
    1.3760   -0.0000    0.0000 C   0  0  0  0  0  0  0  0  0  0  0  0
    0.0000   -0.0000    0.0000 O   0  0  0  0  0  0  0  0  0  0  0  0
   -0.6538   -0.0000    1.2702 C   0  0  0  0  0  0  0  0  0  0  0  0
    2.0425    0.0001    1.2329 C   0  0  0  0  0  0  0  0  0  0  0  0
    4.9836   -1.1180    3.9529 H   0  0  0  0  0  0  0  0  0  0  0  0
    5.1008   -1.8374    2.3284 H   0  0  0  0  0  0  0  0  0  0  0  0
    3.5407   -1.8566    3.2161 H   0  0  0  0  0  0  0  0  0  0  0  0
    5.2177    0.0192    0.0360 H   0  0  0  0  0  0  0  0  0  0  0  0
    5.2228    0.0829   -2.1961 H   0  0  0  0  0  0  0  0  0  0  0  0
    3.9333    0.2146   -6.6433 H   0  0  0  0  0  0  0  0  0  0  0  0
    6.5642    0.3053   -7.3712 H   0  0  0  0  0  0  0  0  0  0  0  0
    8.0152    0.0937   -2.7626 H   0  0  0  0  0  0  0  0  0  0  0  0
   10.3767    0.1120   -2.2272 H   0  0  0  0  0  0  0  0  0  0  0  0
   11.3198    0.3711   -6.4121 H   0  0  0  0  0  0  0  0  0  0  0  0
    8.9060    0.3601   -6.9593 H   0  0  0  0  0  0  0  0  0  0  0  0
    1.5067    0.0024   -2.1814 H   0  0  0  0  0  0  0  0  0  0  0  0
   -1.7340    0.0000    1.1018 H   0  0  0  0  0  0  0  0  0  0  0  0
   -0.3819    0.8975    1.8343 H   0  0  0  0  0  0  0  0  0  0  0  0
   -0.3819   -0.8975    1.8343 H   0  0  0  0  0  0  0  0  0  0  0  0
    1.4841    0.0009    2.1662 H   0  0  0  0  0  0  0  0  0  0  0  0
  1  2  1  0
  2  3  1  0
  3  4  2  0
  4  5  1  0
  5  6  1  0
  6  7  1  0
  7  8  2  0
  7  9  1  0
  9 10  2  0
 10 11  1  0
 11 12  2  0
 12 13  1  0
 12 14  1  0
 14 15  2  0
 15 16  1  0
 16 17  2  0
 17 18  1  0
 17 19  1  0
 19 20  2  0
  5 21  2  0
 21 22  1  0
 22 23  1  0
 23 24  1  0
 22 25  2  0
 25  3  1  0
 13  9  1  0
 20 14  1  0
  1 26  1  0
  1 27  1  0
  1 28  1  0
  4 29  1  0
  6 30  1  0
 10 31  1  0
 11 32  1  0
 15 33  1  0
 16 34  1  0
 19 35  1  0
 20 36  1  0
 21 37  1  0
 24 38  1  0
 24 39  1  0
 24 40  1  0
 25 41  1  0
M  END
>  <_MoleculeID>  (138) 
smi15

>  <_InputIndex>  (138) 
15

>  <_InputSMILES>  (138) 
COc1cc(NC(=O)c2ccc(o2)-c2ccc(Cl)cc2)cc(OC)c1

>  <_InputInChIKey>  (138) 
VHKBTPQDHDSBSP-UHFFFAOYSA-N

>  <_SMILES>  (138) 
COc1cc(NC(=O)c2ccc(-c3ccc(Cl)cc3)o2)cc(OC)c1

>  <_InChIKey>  (138) 
VHKBTPQDHDSBSP-UHFFFAOYSA-N

$$$$
smi15_conf3
     RDKit          3D

 41 43  0  0  0  0  0  0  0  0999 V2000
    4.4507   -1.2835    3.0128 C   0  0  0  0  0  0  0  0  0  0  0  0
    4.1172   -0.0118    2.4540 O   0  0  0  0  0  0  0  0  0  0  0  0
    3.4367   -0.0083    1.2581 C   0  0  0  0  0  0  0  0  0  0  0  0
    4.1302    0.0063    0.0453 C   0  0  0  0  0  0  0  0  0  0  0  0
    3.4437    0.0089   -1.1779 C   0  0  0  0  0  0  0  0  0  0  0  0
    4.2163    0.0306   -2.3392 N   0  0  0  0  0  0  0  0  0  0  0  0
    3.7452    0.0458   -3.6418 C   0  0  0  0  0  0  0  0  0  0  0  0
    2.5851    0.0432   -4.0357 O   0  0  0  0  0  0  0  0  0  0  0  0
    4.7793    0.1211   -4.6164 C   0  0  0  0  0  0  0  0  0  0  0  0
    6.1569    0.1465   -4.5541 C   0  0  0  0  0  0  0  0  0  0  0  0
    6.6133    0.2325   -5.8908 C   0  0  0  0  0  0  0  0  0  0  0  0
    5.4872    0.2511   -6.6793 C   0  0  0  0  0  0  0  0  0  0  0  0
    4.3666    0.1819   -5.9147 O   0  0  0  0  0  0  0  0  0  0  0  0
    5.2680    0.3258   -8.0965 C   0  0  0  0  0  0  0  0  0  0  0  0
    6.0516    1.1635   -8.8940 C   0  0  0  0  0  0  0  0  0  0  0  0
    5.8443    1.2412  -10.2792 C   0  0  0  0  0  0  0  0  0  0  0  0
    4.8480    0.4910  -10.9228 C   0  0  0  0  0  0  0  0  0  0  0  0
    4.5858    0.5802  -12.6213 Cl  0  0  0  0  0  0  0  0  0  0  0  0
    4.0684   -0.3310  -10.0861 C   0  0  0  0  0  0  0  0  0  0  0  0
    4.2571   -0.4211   -8.7003 C   0  0  0  0  0  0  0  0  0  0  0  0
    2.0417   -0.0000   -1.2410 C   0  0  0  0  0  0  0  0  0  0  0  0
    1.3760   -0.0000    0.0000 C   0  0  0  0  0  0  0  0  0  0  0  0
    0.0000   -0.0000    0.0000 O   0  0  0  0  0  0  0  0  0  0  0  0
   -0.6538   -0.0000    1.2702 C   0  0  0  0  0  0  0  0  0  0  0  0
    2.0425    0.0001    1.2329 C   0  0  0  0  0  0  0  0  0  0  0  0
    4.9836   -1.1180    3.9529 H   0  0  0  0  0  0  0  0  0  0  0  0
    5.1008   -1.8374    2.3284 H   0  0  0  0  0  0  0  0  0  0  0  0
    3.5407   -1.8566    3.2161 H   0  0  0  0  0  0  0  0  0  0  0  0
    5.2177    0.0192    0.0360 H   0  0  0  0  0  0  0  0  0  0  0  0
    5.2228    0.0829   -2.1961 H   0  0  0  0  0  0  0  0  0  0  0  0
    6.7565    0.1101   -3.6558 H   0  0  0  0  0  0  0  0  0  0  0  0
    7.6361    0.2753   -6.2363 H   0  0  0  0  0  0  0  0  0  0  0  0
    6.8344    1.7715   -8.4464 H   0  0  0  0  0  0  0  0  0  0  0  0
    6.4865    1.9172  -10.8382 H   0  0  0  0  0  0  0  0  0  0  0  0
    3.2781   -0.9268  -10.5412 H   0  0  0  0  0  0  0  0  0  0  0  0
    3.6284   -1.0702   -8.0952 H   0  0  0  0  0  0  0  0  0  0  0  0
    1.5067    0.0024   -2.1814 H   0  0  0  0  0  0  0  0  0  0  0  0
   -1.7340    0.0000    1.1018 H   0  0  0  0  0  0  0  0  0  0  0  0
   -0.3819    0.8975    1.8343 H   0  0  0  0  0  0  0  0  0  0  0  0
   -0.3819   -0.8975    1.8343 H   0  0  0  0  0  0  0  0  0  0  0  0
    1.4841    0.0009    2.1662 H   0  0  0  0  0  0  0  0  0  0  0  0
  1  2  1  0
  2  3  1  0
  3  4  2  0
  4  5  1  0
  5  6  1  0
  6  7  1  0
  7  8  2  0
  7  9  1  0
  9 10  2  0
 10 11  1  0
 11 12  2  0
 12 13  1  0
 12 14  1  0
 14 15  2  0
 15 16  1  0
 16 17  2  0
 17 18  1  0
 17 19  1  0
 19 20  2  0
  5 21  2  0
 21 22  1  0
 22 23  1  0
 23 24  1  0
 22 25  2  0
 25  3  1  0
 13  9  1  0
 20 14  1  0
  1 26  1  0
  1 27  1  0
  1 28  1  0
  4 29  1  0
  6 30  1  0
 10 31  1  0
 11 32  1  0
 15 33  1  0
 16 34  1  0
 19 35  1  0
 20 36  1  0
 21 37  1  0
 24 38  1  0
 24 39  1  0
 24 40  1  0
 25 41  1  0
M  END
>  <_MoleculeID>  (139) 
smi15

>  <_InputIndex>  (139) 
15

>  <_InputSMILES>  (139) 
COc1cc(NC(=O)c2ccc(o2)-c2ccc(Cl)cc2)cc(OC)c1

>  <_InputInChIKey>  (139) 
VHKBTPQDHDSBSP-UHFFFAOYSA-N

>  <_SMILES>  (139) 
COc1cc(NC(=O)c2ccc(-c3ccc(Cl)cc3)o2)cc(OC)c1

>  <_InChIKey>  (139) 
VHKBTPQDHDSBSP-UHFFFAOYSA-N

$$$$
smi15_conf4
     RDKit          3D

 41 43  0  0  0  0  0  0  0  0999 V2000
    5.5444   -0.0001   -2.3941 C   0  0  0  0  0  0  0  0  0  0  0  0
    4.1172    0.0118   -2.4540 O   0  0  0  0  0  0  0  0  0  0  0  0
    3.4367    0.0083   -1.2581 C   0  0  0  0  0  0  0  0  0  0  0  0
    4.1302   -0.0063   -0.0453 C   0  0  0  0  0  0  0  0  0  0  0  0
    3.4437   -0.0089    1.1779 C   0  0  0  0  0  0  0  0  0  0  0  0
    4.2163   -0.0306    2.3392 N   0  0  0  0  0  0  0  0  0  0  0  0
    3.7452   -0.0458    3.6418 C   0  0  0  0  0  0  0  0  0  0  0  0
    2.5851   -0.0432    4.0357 O   0  0  0  0  0  0  0  0  0  0  0  0
    4.7793   -0.1211    4.6164 C   0  0  0  0  0  0  0  0  0  0  0  0
    5.1188   -1.0410    5.5864 C   0  0  0  0  0  0  0  0  0  0  0  0
    6.2654   -0.5270    6.2372 C   0  0  0  0  0  0  0  0  0  0  0  0
    6.5512    0.6686    5.6214 C   0  0  0  0  0  0  0  0  0  0  0  0
    5.6550    0.9240    4.6332 O   0  0  0  0  0  0  0  0  0  0  0  0
    7.5703    1.6631    5.8074 C   0  0  0  0  0  0  0  0  0  0  0  0
    7.6040    2.8055    5.0039 C   0  0  0  0  0  0  0  0  0  0  0  0
    8.5956    3.7819    5.1801 C   0  0  0  0  0  0  0  0  0  0  0  0
    9.5925    3.6575    6.1600 C   0  0  0  0  0  0  0  0  0  0  0  0
   10.8134    4.8498    6.3832 Cl  0  0  0  0  0  0  0  0  0  0  0  0
    9.5361    2.4871    6.9413 C   0  0  0  0  0  0  0  0  0  0  0  0
    8.5559    1.4984    6.7798 C   0  0  0  0  0  0  0  0  0  0  0  0
    2.0417    0.0000    1.2410 C   0  0  0  0  0  0  0  0  0  0  0  0
    1.3760   -0.0000    0.0000 C   0  0  0  0  0  0  0  0  0  0  0  0
    0.0000   -0.0000    0.0000 O   0  0  0  0  0  0  0  0  0  0  0  0
   -0.6538   -0.0000    1.2702 C   0  0  0  0  0  0  0  0  0  0  0  0
    2.0425   -0.0001   -1.2329 C   0  0  0  0  0  0  0  0  0  0  0  0
    5.9324    0.0044   -3.4162 H   0  0  0  0  0  0  0  0  0  0  0  0
    5.8931   -0.9043   -1.8855 H   0  0  0  0  0  0  0  0  0  0  0  0
    5.9075    0.8907   -1.8721 H   0  0  0  0  0  0  0  0  0  0  0  0
    5.2177   -0.0192   -0.0360 H   0  0  0  0  0  0  0  0  0  0  0  0
    5.2228   -0.0829    2.1961 H   0  0  0  0  0  0  0  0  0  0  0  0
    4.6016   -1.9658    5.7988 H   0  0  0  0  0  0  0  0  0  0  0  0
    6.8151   -0.9728    7.0535 H   0  0  0  0  0  0  0  0  0  0  0  0
    6.8587    2.9500    4.2252 H   0  0  0  0  0  0  0  0  0  0  0  0
    8.5654    4.6428    4.5167 H   0  0  0  0  0  0  0  0  0  0  0  0
   10.2942    2.3444    7.7104 H   0  0  0  0  0  0  0  0  0  0  0  0
    8.5542    0.6103    7.4076 H   0  0  0  0  0  0  0  0  0  0  0  0
    1.5067   -0.0024    2.1814 H   0  0  0  0  0  0  0  0  0  0  0  0
   -1.7340    0.0000    1.1018 H   0  0  0  0  0  0  0  0  0  0  0  0
   -0.3819    0.8975    1.8343 H   0  0  0  0  0  0  0  0  0  0  0  0
   -0.3819   -0.8975    1.8343 H   0  0  0  0  0  0  0  0  0  0  0  0
    1.4841   -0.0009   -2.1662 H   0  0  0  0  0  0  0  0  0  0  0  0
  1  2  1  0
  2  3  1  0
  3  4  2  0
  4  5  1  0
  5  6  1  0
  6  7  1  0
  7  8  2  0
  7  9  1  0
  9 10  2  0
 10 11  1  0
 11 12  2  0
 12 13  1  0
 12 14  1  0
 14 15  2  0
 15 16  1  0
 16 17  2  0
 17 18  1  0
 17 19  1  0
 19 20  2  0
  5 21  2  0
 21 22  1  0
 22 23  1  0
 23 24  1  0
 22 25  2  0
 25  3  1  0
 13  9  1  0
 20 14  1  0
  1 26  1  0
  1 27  1  0
  1 28  1  0
  4 29  1  0
  6 30  1  0
 10 31  1  0
 11 32  1  0
 15 33  1  0
 16 34  1  0
 19 35  1  0
 20 36  1  0
 21 37  1  0
 24 38  1  0
 24 39  1  0
 24 40  1  0
 25 41  1  0
M  END
>  <_MoleculeID>  (140) 
smi15

>  <_InputIndex>  (140) 
15

>  <_InputSMILES>  (140) 
COc1cc(NC(=O)c2ccc(o2)-c2ccc(Cl)cc2)cc(OC)c1

>  <_InputInChIKey>  (140) 
VHKBTPQDHDSBSP-UHFFFAOYSA-N

>  <_SMILES>  (140) 
COc1cc(NC(=O)c2ccc(-c3ccc(Cl)cc3)o2)cc(OC)c1

>  <_InChIKey>  (140) 
VHKBTPQDHDSBSP-UHFFFAOYSA-N

$$$$
smi15_conf5
     RDKit          3D

 41 43  0  0  0  0  0  0  0  0999 V2000
    5.5444   -2.3941    0.0001 C   0  0  0  0  0  0  0  0  0  0  0  0
    4.1172   -2.4540   -0.0118 O   0  0  0  0  0  0  0  0  0  0  0  0
    3.4367   -1.2581   -0.0083 C   0  0  0  0  0  0  0  0  0  0  0  0
    4.1302   -0.0453    0.0063 C   0  0  0  0  0  0  0  0  0  0  0  0
    3.4437    1.1779    0.0089 C   0  0  0  0  0  0  0  0  0  0  0  0
    4.2163    2.3392    0.0306 N   0  0  0  0  0  0  0  0  0  0  0  0
    3.7452    3.6418    0.0458 C   0  0  0  0  0  0  0  0  0  0  0  0
    2.5851    4.0357    0.0432 O   0  0  0  0  0  0  0  0  0  0  0  0
    4.7793    4.6164    0.1211 C   0  0  0  0  0  0  0  0  0  0  0  0
    5.1546    5.6809   -0.6716 C   0  0  0  0  0  0  0  0  0  0  0  0
    6.2806    6.2653   -0.0446 C   0  0  0  0  0  0  0  0  0  0  0  0
    6.5162    5.5227    1.0882 C   0  0  0  0  0  0  0  0  0  0  0  0
    5.6080    4.5189    1.1997 O   0  0  0  0  0  0  0  0  0  0  0  0
    7.4938    5.5946    2.1376 C   0  0  0  0  0  0  0  0  0  0  0  0
    7.4785    4.6735    3.1879 C   0  0  0  0  0  0  0  0  0  0  0  0
    8.4307    4.7365    4.2161 C   0  0  0  0  0  0  0  0  0  0  0  0
    9.4319    5.7197    4.2399 C   0  0  0  0  0  0  0  0  0  0  0  0
   10.6037    5.8054    5.4974 Cl  0  0  0  0  0  0  0  0  0  0  0  0
    9.4079    6.6395    3.1737 C   0  0  0  0  0  0  0  0  0  0  0  0
    8.4642    6.5959    2.1384 C   0  0  0  0  0  0  0  0  0  0  0  0
    2.0417    1.2410   -0.0000 C   0  0  0  0  0  0  0  0  0  0  0  0
    1.3760    0.0000    0.0000 C   0  0  0  0  0  0  0  0  0  0  0  0
    0.0000   -0.0000    0.0000 O   0  0  0  0  0  0  0  0  0  0  0  0
   -0.6538   -0.0000    1.2702 C   0  0  0  0  0  0  0  0  0  0  0  0
    2.0425   -1.2329    0.0001 C   0  0  0  0  0  0  0  0  0  0  0  0
    5.9324   -3.4162   -0.0044 H   0  0  0  0  0  0  0  0  0  0  0  0
    5.8931   -1.8855    0.9043 H   0  0  0  0  0  0  0  0  0  0  0  0
    5.9075   -1.8721   -0.8907 H   0  0  0  0  0  0  0  0  0  0  0  0
    5.2177   -0.0360    0.0192 H   0  0  0  0  0  0  0  0  0  0  0  0
    5.2228    2.1961    0.0829 H   0  0  0  0  0  0  0  0  0  0  0  0
    4.6767    5.9940   -1.5889 H   0  0  0  0  0  0  0  0  0  0  0  0
    6.8493    7.1215   -0.3772 H   0  0  0  0  0  0  0  0  0  0  0  0
    6.7211    3.8938    3.2221 H   0  0  0  0  0  0  0  0  0  0  0  0
    8.3571    3.9917    5.0047 H   0  0  0  0  0  0  0  0  0  0  0  0
   10.1624    7.4249    3.1542 H   0  0  0  0  0  0  0  0  0  0  0  0
    8.4857    7.3298    1.3361 H   0  0  0  0  0  0  0  0  0  0  0  0
    1.5067    2.1814    0.0024 H   0  0  0  0  0  0  0  0  0  0  0  0
   -1.7340    0.0000    1.1018 H   0  0  0  0  0  0  0  0  0  0  0  0
   -0.3819    0.8975    1.8343 H   0  0  0  0  0  0  0  0  0  0  0  0
   -0.3819   -0.8975    1.8343 H   0  0  0  0  0  0  0  0  0  0  0  0
    1.4841   -2.1662    0.0009 H   0  0  0  0  0  0  0  0  0  0  0  0
  1  2  1  0
  2  3  1  0
  3  4  2  0
  4  5  1  0
  5  6  1  0
  6  7  1  0
  7  8  2  0
  7  9  1  0
  9 10  2  0
 10 11  1  0
 11 12  2  0
 12 13  1  0
 12 14  1  0
 14 15  2  0
 15 16  1  0
 16 17  2  0
 17 18  1  0
 17 19  1  0
 19 20  2  0
  5 21  2  0
 21 22  1  0
 22 23  1  0
 23 24  1  0
 22 25  2  0
 25  3  1  0
 13  9  1  0
 20 14  1  0
  1 26  1  0
  1 27  1  0
  1 28  1  0
  4 29  1  0
  6 30  1  0
 10 31  1  0
 11 32  1  0
 15 33  1  0
 16 34  1  0
 19 35  1  0
 20 36  1  0
 21 37  1  0
 24 38  1  0
 24 39  1  0
 24 40  1  0
 25 41  1  0
M  END
>  <_MoleculeID>  (141) 
smi15

>  <_InputIndex>  (141) 
15

>  <_InputSMILES>  (141) 
COc1cc(NC(=O)c2ccc(o2)-c2ccc(Cl)cc2)cc(OC)c1

>  <_InputInChIKey>  (141) 
VHKBTPQDHDSBSP-UHFFFAOYSA-N

>  <_SMILES>  (141) 
COc1cc(NC(=O)c2ccc(-c3ccc(Cl)cc3)o2)cc(OC)c1

>  <_InChIKey>  (141) 
VHKBTPQDHDSBSP-UHFFFAOYSA-N

$$$$
smi15_conf6
     RDKit          3D

 41 43  0  0  0  0  0  0  0  0999 V2000
    5.5444    2.3941   -0.0001 C   0  0  0  0  0  0  0  0  0  0  0  0
    4.1172    2.4540    0.0118 O   0  0  0  0  0  0  0  0  0  0  0  0
    3.4367    1.2581    0.0083 C   0  0  0  0  0  0  0  0  0  0  0  0
    4.1302    0.0453   -0.0063 C   0  0  0  0  0  0  0  0  0  0  0  0
    3.4437   -1.1779   -0.0089 C   0  0  0  0  0  0  0  0  0  0  0  0
    4.2163   -2.3392   -0.0306 N   0  0  0  0  0  0  0  0  0  0  0  0
    3.7452   -3.6418   -0.0458 C   0  0  0  0  0  0  0  0  0  0  0  0
    2.5851   -4.0357   -0.0432 O   0  0  0  0  0  0  0  0  0  0  0  0
    4.7793   -4.6164   -0.1211 C   0  0  0  0  0  0  0  0  0  0  0  0
    5.8347   -4.9612    0.6971 C   0  0  0  0  0  0  0  0  0  0  0  0
    6.5075   -6.0250    0.0504 C   0  0  0  0  0  0  0  0  0  0  0  0
    5.8185   -6.2608   -1.1157 C   0  0  0  0  0  0  0  0  0  0  0  0
    4.7647   -5.4113   -1.2290 O   0  0  0  0  0  0  0  0  0  0  0  0
    5.9844   -7.1916   -2.1966 C   0  0  0  0  0  0  0  0  0  0  0  0
    5.0985   -7.1920   -3.2769 C   0  0  0  0  0  0  0  0  0  0  0  0
    5.2545   -8.0973   -4.3370 C   0  0  0  0  0  0  0  0  0  0  0  0
    6.2956   -9.0381   -4.3611 C   0  0  0  0  0  0  0  0  0  0  0  0
    6.4946  -10.1532   -5.6568 Cl  0  0  0  0  0  0  0  0  0  0  0  0
    7.1602   -9.0186   -3.2496 C   0  0  0  0  0  0  0  0  0  0  0  0
    7.0205   -8.1246   -2.1792 C   0  0  0  0  0  0  0  0  0  0  0  0
    2.0417   -1.2410    0.0000 C   0  0  0  0  0  0  0  0  0  0  0  0
    1.3760   -0.0000    0.0000 C   0  0  0  0  0  0  0  0  0  0  0  0
    0.0000   -0.0000    0.0000 O   0  0  0  0  0  0  0  0  0  0  0  0
   -0.6538   -0.0000    1.2702 C   0  0  0  0  0  0  0  0  0  0  0  0
    2.0425    1.2329   -0.0001 C   0  0  0  0  0  0  0  0  0  0  0  0
    5.9324    3.4162    0.0044 H   0  0  0  0  0  0  0  0  0  0  0  0
    5.8931    1.8855   -0.9043 H   0  0  0  0  0  0  0  0  0  0  0  0
    5.9075    1.8721    0.8907 H   0  0  0  0  0  0  0  0  0  0  0  0
    5.2177    0.0360   -0.0192 H   0  0  0  0  0  0  0  0  0  0  0  0
    5.2228   -2.1961   -0.0829 H   0  0  0  0  0  0  0  0  0  0  0  0
    6.0883   -4.5003    1.6411 H   0  0  0  0  0  0  0  0  0  0  0  0
    7.3852   -6.5541    0.3923 H   0  0  0  0  0  0  0  0  0  0  0  0
    4.2703   -6.4877   -3.3068 H   0  0  0  0  0  0  0  0  0  0  0  0
    4.5262   -8.0459   -5.1425 H   0  0  0  0  0  0  0  0  0  0  0  0
    7.9794   -9.7360   -3.2219 H   0  0  0  0  0  0  0  0  0  0  0  0
    7.7137   -8.1485   -1.3416 H   0  0  0  0  0  0  0  0  0  0  0  0
    1.5067   -2.1814   -0.0024 H   0  0  0  0  0  0  0  0  0  0  0  0
   -1.7340    0.0000    1.1018 H   0  0  0  0  0  0  0  0  0  0  0  0
   -0.3819    0.8975    1.8343 H   0  0  0  0  0  0  0  0  0  0  0  0
   -0.3819   -0.8975    1.8343 H   0  0  0  0  0  0  0  0  0  0  0  0
    1.4841    2.1662   -0.0009 H   0  0  0  0  0  0  0  0  0  0  0  0
  1  2  1  0
  2  3  1  0
  3  4  2  0
  4  5  1  0
  5  6  1  0
  6  7  1  0
  7  8  2  0
  7  9  1  0
  9 10  2  0
 10 11  1  0
 11 12  2  0
 12 13  1  0
 12 14  1  0
 14 15  2  0
 15 16  1  0
 16 17  2  0
 17 18  1  0
 17 19  1  0
 19 20  2  0
  5 21  2  0
 21 22  1  0
 22 23  1  0
 23 24  1  0
 22 25  2  0
 25  3  1  0
 13  9  1  0
 20 14  1  0
  1 26  1  0
  1 27  1  0
  1 28  1  0
  4 29  1  0
  6 30  1  0
 10 31  1  0
 11 32  1  0
 15 33  1  0
 16 34  1  0
 19 35  1  0
 20 36  1  0
 21 37  1  0
 24 38  1  0
 24 39  1  0
 24 40  1  0
 25 41  1  0
M  END
>  <_MoleculeID>  (142) 
smi15

>  <_InputIndex>  (142) 
15

>  <_InputSMILES>  (142) 
COc1cc(NC(=O)c2ccc(o2)-c2ccc(Cl)cc2)cc(OC)c1

>  <_InputInChIKey>  (142) 
VHKBTPQDHDSBSP-UHFFFAOYSA-N

>  <_SMILES>  (142) 
COc1cc(NC(=O)c2ccc(-c3ccc(Cl)cc3)o2)cc(OC)c1

>  <_InChIKey>  (142) 
VHKBTPQDHDSBSP-UHFFFAOYSA-N

$$$$
smi15_conf7
     RDKit          3D

 41 43  0  0  0  0  0  0  0  0999 V2000
    5.5444   -2.3941    0.0001 C   0  0  0  0  0  0  0  0  0  0  0  0
    4.1172   -2.4540   -0.0118 O   0  0  0  0  0  0  0  0  0  0  0  0
    3.4367   -1.2581   -0.0083 C   0  0  0  0  0  0  0  0  0  0  0  0
    4.1302   -0.0453    0.0063 C   0  0  0  0  0  0  0  0  0  0  0  0
    3.4437    1.1779    0.0089 C   0  0  0  0  0  0  0  0  0  0  0  0
    4.2163    2.3392    0.0306 N   0  0  0  0  0  0  0  0  0  0  0  0
    5.5998    2.4079    0.0413 C   0  0  0  0  0  0  0  0  0  0  0  0
    6.4114    1.4902    0.0340 O   0  0  0  0  0  0  0  0  0  0  0  0
    6.1002    3.7397    0.0091 C   0  0  0  0  0  0  0  0  0  0  0  0
    5.5108    4.9867    0.0060 C   0  0  0  0  0  0  0  0  0  0  0  0
    6.5684    5.9257   -0.0373 C   0  0  0  0  0  0  0  0  0  0  0  0
    7.7311    5.1921   -0.0549 C   0  0  0  0  0  0  0  0  0  0  0  0
    7.4579    3.8619   -0.0250 O   0  0  0  0  0  0  0  0  0  0  0  0
    9.1239    5.5389   -0.0965 C   0  0  0  0  0  0  0  0  0  0  0  0
   10.1046    4.5438   -0.1044 C   0  0  0  0  0  0  0  0  0  0  0  0
   11.4671    4.8745   -0.1459 C   0  0  0  0  0  0  0  0  0  0  0  0
   11.9057    6.2073   -0.1783 C   0  0  0  0  0  0  0  0  0  0  0  0
   13.5750    6.6227   -0.2287 Cl  0  0  0  0  0  0  0  0  0  0  0  0
   10.8908    7.1833   -0.1546 C   0  0  0  0  0  0  0  0  0  0  0  0
    9.5244    6.8745   -0.1104 C   0  0  0  0  0  0  0  0  0  0  0  0
    2.0417    1.2410   -0.0000 C   0  0  0  0  0  0  0  0  0  0  0  0
    1.3760    0.0000    0.0000 C   0  0  0  0  0  0  0  0  0  0  0  0
    0.0000   -0.0000    0.0000 O   0  0  0  0  0  0  0  0  0  0  0  0
   -0.6538   -0.0000    1.2702 C   0  0  0  0  0  0  0  0  0  0  0  0
    2.0425   -1.2329    0.0001 C   0  0  0  0  0  0  0  0  0  0  0  0
    5.9324   -3.4162   -0.0044 H   0  0  0  0  0  0  0  0  0  0  0  0
    5.8931   -1.8855    0.9043 H   0  0  0  0  0  0  0  0  0  0  0  0
    5.9075   -1.8721   -0.8907 H   0  0  0  0  0  0  0  0  0  0  0  0
    5.2177   -0.0360    0.0192 H   0  0  0  0  0  0  0  0  0  0  0  0
    3.6963    3.2135   -0.0079 H   0  0  0  0  0  0  0  0  0  0  0  0
    4.4500    5.1919    0.0294 H   0  0  0  0  0  0  0  0  0  0  0  0
    6.4925    7.0033   -0.0534 H   0  0  0  0  0  0  0  0  0  0  0  0
    9.8206    3.4944   -0.0748 H   0  0  0  0  0  0  0  0  0  0  0  0
   12.1763    4.0505   -0.1444 H   0  0  0  0  0  0  0  0  0  0  0  0
   11.1845    8.2321   -0.1715 H   0  0  0  0  0  0  0  0  0  0  0  0
    8.7768    7.6641   -0.0927 H   0  0  0  0  0  0  0  0  0  0  0  0
    1.5067    2.1814    0.0024 H   0  0  0  0  0  0  0  0  0  0  0  0
   -1.7340    0.0000    1.1018 H   0  0  0  0  0  0  0  0  0  0  0  0
   -0.3819    0.8975    1.8343 H   0  0  0  0  0  0  0  0  0  0  0  0
   -0.3819   -0.8975    1.8343 H   0  0  0  0  0  0  0  0  0  0  0  0
    1.4841   -2.1662    0.0009 H   0  0  0  0  0  0  0  0  0  0  0  0
  1  2  1  0
  2  3  1  0
  3  4  2  0
  4  5  1  0
  5  6  1  0
  6  7  1  0
  7  8  2  0
  7  9  1  0
  9 10  2  0
 10 11  1  0
 11 12  2  0
 12 13  1  0
 12 14  1  0
 14 15  2  0
 15 16  1  0
 16 17  2  0
 17 18  1  0
 17 19  1  0
 19 20  2  0
  5 21  2  0
 21 22  1  0
 22 23  1  0
 23 24  1  0
 22 25  2  0
 25  3  1  0
 13  9  1  0
 20 14  1  0
  1 26  1  0
  1 27  1  0
  1 28  1  0
  4 29  1  0
  6 30  1  0
 10 31  1  0
 11 32  1  0
 15 33  1  0
 16 34  1  0
 19 35  1  0
 20 36  1  0
 21 37  1  0
 24 38  1  0
 24 39  1  0
 24 40  1  0
 25 41  1  0
M  END
>  <_MoleculeID>  (143) 
smi15

>  <_InputIndex>  (143) 
15

>  <_InputSMILES>  (143) 
COc1cc(NC(=O)c2ccc(o2)-c2ccc(Cl)cc2)cc(OC)c1

>  <_InputInChIKey>  (143) 
VHKBTPQDHDSBSP-UHFFFAOYSA-N

>  <_SMILES>  (143) 
COc1cc(NC(=O)c2ccc(-c3ccc(Cl)cc3)o2)cc(OC)c1

>  <_InChIKey>  (143) 
VHKBTPQDHDSBSP-UHFFFAOYSA-N

$$$$
smi15_conf8
     RDKit          3D

 41 43  0  0  0  0  0  0  0  0999 V2000
    3.3366   -3.6504   -0.0270 C   0  0  0  0  0  0  0  0  0  0  0  0
    4.1172   -2.4540   -0.0118 O   0  0  0  0  0  0  0  0  0  0  0  0
    3.4367   -1.2581   -0.0083 C   0  0  0  0  0  0  0  0  0  0  0  0
    4.1302   -0.0453    0.0063 C   0  0  0  0  0  0  0  0  0  0  0  0
    3.4437    1.1779    0.0089 C   0  0  0  0  0  0  0  0  0  0  0  0
    4.2163    2.3392    0.0306 N   0  0  0  0  0  0  0  0  0  0  0  0
    3.7452    3.6418    0.0458 C   0  0  0  0  0  0  0  0  0  0  0  0
    2.5851    4.0357    0.0432 O   0  0  0  0  0  0  0  0  0  0  0  0
    4.7793    4.6164    0.1211 C   0  0  0  0  0  0  0  0  0  0  0  0
    5.7989    4.8667    1.0155 C   0  0  0  0  0  0  0  0  0  0  0  0
    6.4923    5.9969    0.5212 C   0  0  0  0  0  0  0  0  0  0  0  0
    5.8535    6.3595   -0.6410 C   0  0  0  0  0  0  0  0  0  0  0  0
    4.8118    5.5256   -0.8946 O   0  0  0  0  0  0  0  0  0  0  0  0
    6.0609    7.4044   -1.6040 C   0  0  0  0  0  0  0  0  0  0  0  0
    4.9743    8.0798   -2.1654 C   0  0  0  0  0  0  0  0  0  0  0  0
    5.1687    9.1022   -3.1059 C   0  0  0  0  0  0  0  0  0  0  0  0
    6.4508    9.4893   -3.5257 C   0  0  0  0  0  0  0  0  0  0  0  0
    6.6991   10.7419   -4.6794 Cl  0  0  0  0  0  0  0  0  0  0  0  0
    7.5210    8.7775   -2.9501 C   0  0  0  0  0  0  0  0  0  0  0  0
    7.3486    7.7512   -2.0112 C   0  0  0  0  0  0  0  0  0  0  0  0
    2.0417    1.2410   -0.0000 C   0  0  0  0  0  0  0  0  0  0  0  0
    1.3760    0.0000   -0.0000 C   0  0  0  0  0  0  0  0  0  0  0  0
    0.0000   -0.0000    0.0000 O   0  0  0  0  0  0  0  0  0  0  0  0
   -0.6538   -0.0000    1.2702 C   0  0  0  0  0  0  0  0  0  0  0  0
    2.0425   -1.2329    0.0001 C   0  0  0  0  0  0  0  0  0  0  0  0
    4.0172   -4.5060   -0.0279 H   0  0  0  0  0  0  0  0  0  0  0  0
    2.7190   -3.6863   -0.9298 H   0  0  0  0  0  0  0  0  0  0  0  0
    2.7046   -3.6997    0.8651 H   0  0  0  0  0  0  0  0  0  0  0  0
    5.2177   -0.0360    0.0192 H   0  0  0  0  0  0  0  0  0  0  0  0
    5.2228    2.1961    0.0829 H   0  0  0  0  0  0  0  0  0  0  0  0
    6.0132    4.3050    1.9136 H   0  0  0  0  0  0  0  0  0  0  0  0
    7.3510    6.4860    0.9578 H   0  0  0  0  0  0  0  0  0  0  0  0
    3.9585    7.8165   -1.8800 H   0  0  0  0  0  0  0  0  0  0  0  0
    4.2789    9.5820   -3.5060 H   0  0  0  0  0  0  0  0  0  0  0  0
    8.5346    9.0391   -3.2513 H   0  0  0  0  0  0  0  0  0  0  0  0
    8.2071    7.2293   -1.5950 H   0  0  0  0  0  0  0  0  0  0  0  0
    1.5067    2.1814    0.0024 H   0  0  0  0  0  0  0  0  0  0  0  0
   -1.7340    0.0000    1.1018 H   0  0  0  0  0  0  0  0  0  0  0  0
   -0.3819    0.8975    1.8343 H   0  0  0  0  0  0  0  0  0  0  0  0
   -0.3819   -0.8975    1.8343 H   0  0  0  0  0  0  0  0  0  0  0  0
    1.4841   -2.1662    0.0009 H   0  0  0  0  0  0  0  0  0  0  0  0
  1  2  1  0
  2  3  1  0
  3  4  2  0
  4  5  1  0
  5  6  1  0
  6  7  1  0
  7  8  2  0
  7  9  1  0
  9 10  2  0
 10 11  1  0
 11 12  2  0
 12 13  1  0
 12 14  1  0
 14 15  2  0
 15 16  1  0
 16 17  2  0
 17 18  1  0
 17 19  1  0
 19 20  2  0
  5 21  2  0
 21 22  1  0
 22 23  1  0
 23 24  1  0
 22 25  2  0
 25  3  1  0
 13  9  1  0
 20 14  1  0
  1 26  1  0
  1 27  1  0
  1 28  1  0
  4 29  1  0
  6 30  1  0
 10 31  1  0
 11 32  1  0
 15 33  1  0
 16 34  1  0
 19 35  1  0
 20 36  1  0
 21 37  1  0
 24 38  1  0
 24 39  1  0
 24 40  1  0
 25 41  1  0
M  END
>  <_MoleculeID>  (144) 
smi15

>  <_InputIndex>  (144) 
15

>  <_InputSMILES>  (144) 
COc1cc(NC(=O)c2ccc(o2)-c2ccc(Cl)cc2)cc(OC)c1

>  <_InputInChIKey>  (144) 
VHKBTPQDHDSBSP-UHFFFAOYSA-N

>  <_SMILES>  (144) 
COc1cc(NC(=O)c2ccc(-c3ccc(Cl)cc3)o2)cc(OC)c1

>  <_InChIKey>  (144) 
VHKBTPQDHDSBSP-UHFFFAOYSA-N

$$$$
smi15_conf9
     RDKit          3D

 41 43  0  0  0  0  0  0  0  0999 V2000
    3.3366   -0.0270    3.6504 C   0  0  0  0  0  0  0  0  0  0  0  0
    4.1172   -0.0118    2.4540 O   0  0  0  0  0  0  0  0  0  0  0  0
    3.4367   -0.0083    1.2581 C   0  0  0  0  0  0  0  0  0  0  0  0
    4.1302    0.0063    0.0453 C   0  0  0  0  0  0  0  0  0  0  0  0
    3.4437    0.0089   -1.1779 C   0  0  0  0  0  0  0  0  0  0  0  0
    4.2163    0.0306   -2.3392 N   0  0  0  0  0  0  0  0  0  0  0  0
    5.5998    0.0413   -2.4079 C   0  0  0  0  0  0  0  0  0  0  0  0
    6.4114    0.0340   -1.4902 O   0  0  0  0  0  0  0  0  0  0  0  0
    6.1002    0.0091   -3.7397 C   0  0  0  0  0  0  0  0  0  0  0  0
    5.5108    0.0060   -4.9867 C   0  0  0  0  0  0  0  0  0  0  0  0
    6.5684   -0.0373   -5.9257 C   0  0  0  0  0  0  0  0  0  0  0  0
    7.7311   -0.0549   -5.1921 C   0  0  0  0  0  0  0  0  0  0  0  0
    7.4579   -0.0250   -3.8619 O   0  0  0  0  0  0  0  0  0  0  0  0
    9.1239   -0.0965   -5.5389 C   0  0  0  0  0  0  0  0  0  0  0  0
   10.0168   -0.8801   -4.8034 C   0  0  0  0  0  0  0  0  0  0  0  0
   11.3786   -0.9267   -5.1366 C   0  0  0  0  0  0  0  0  0  0  0  0
   11.9041   -0.1937   -6.2118 C   0  0  0  0  0  0  0  0  0  0  0  0
   13.5733   -0.2441   -6.6277 Cl  0  0  0  0  0  0  0  0  0  0  0  0
   10.9784    0.5956   -6.9213 C   0  0  0  0  0  0  0  0  0  0  0  0
    9.6148    0.6585   -6.6034 C   0  0  0  0  0  0  0  0  0  0  0  0
    2.0417   -0.0000   -1.2410 C   0  0  0  0  0  0  0  0  0  0  0  0
    1.3760   -0.0000    0.0000 C   0  0  0  0  0  0  0  0  0  0  0  0
    0.0000   -0.0000    0.0000 O   0  0  0  0  0  0  0  0  0  0  0  0
   -0.6538   -0.0000    1.2702 C   0  0  0  0  0  0  0  0  0  0  0  0
    2.0425    0.0001    1.2329 C   0  0  0  0  0  0  0  0  0  0  0  0
    4.0172   -0.0279    4.5060 H   0  0  0  0  0  0  0  0  0  0  0  0
    2.7190   -0.9298    3.6863 H   0  0  0  0  0  0  0  0  0  0  0  0
    2.7046    0.8651    3.6997 H   0  0  0  0  0  0  0  0  0  0  0  0
    5.2177    0.0192    0.0360 H   0  0  0  0  0  0  0  0  0  0  0  0
    3.6963   -0.0079   -3.2135 H   0  0  0  0  0  0  0  0  0  0  0  0
    4.4500    0.0294   -5.1919 H   0  0  0  0  0  0  0  0  0  0  0  0
    6.4925   -0.0534   -7.0033 H   0  0  0  0  0  0  0  0  0  0  0  0
    9.6641   -1.4640   -3.9564 H   0  0  0  0  0  0  0  0  0  0  0  0
   12.0177   -1.5527   -4.5188 H   0  0  0  0  0  0  0  0  0  0  0  0
   11.3426    1.1873   -7.7603 H   0  0  0  0  0  0  0  0  0  0  0  0
    8.9382    1.2841   -7.1810 H   0  0  0  0  0  0  0  0  0  0  0  0
    1.5067    0.0024   -2.1814 H   0  0  0  0  0  0  0  0  0  0  0  0
   -1.7340    0.0000    1.1018 H   0  0  0  0  0  0  0  0  0  0  0  0
   -0.3819    0.8975    1.8343 H   0  0  0  0  0  0  0  0  0  0  0  0
   -0.3819   -0.8975    1.8343 H   0  0  0  0  0  0  0  0  0  0  0  0
    1.4841    0.0009    2.1662 H   0  0  0  0  0  0  0  0  0  0  0  0
  1  2  1  0
  2  3  1  0
  3  4  2  0
  4  5  1  0
  5  6  1  0
  6  7  1  0
  7  8  2  0
  7  9  1  0
  9 10  2  0
 10 11  1  0
 11 12  2  0
 12 13  1  0
 12 14  1  0
 14 15  2  0
 15 16  1  0
 16 17  2  0
 17 18  1  0
 17 19  1  0
 19 20  2  0
  5 21  2  0
 21 22  1  0
 22 23  1  0
 23 24  1  0
 22 25  2  0
 25  3  1  0
 13  9  1  0
 20 14  1  0
  1 26  1  0
  1 27  1  0
  1 28  1  0
  4 29  1  0
  6 30  1  0
 10 31  1  0
 11 32  1  0
 15 33  1  0
 16 34  1  0
 19 35  1  0
 20 36  1  0
 21 37  1  0
 24 38  1  0
 24 39  1  0
 24 40  1  0
 25 41  1  0
M  END
>  <_MoleculeID>  (145) 
smi15

>  <_InputIndex>  (145) 
15

>  <_InputSMILES>  (145) 
COc1cc(NC(=O)c2ccc(o2)-c2ccc(Cl)cc2)cc(OC)c1

>  <_InputInChIKey>  (145) 
VHKBTPQDHDSBSP-UHFFFAOYSA-N

>  <_SMILES>  (145) 
COc1cc(NC(=O)c2ccc(-c3ccc(Cl)cc3)o2)cc(OC)c1

>  <_InChIKey>  (145) 
VHKBTPQDHDSBSP-UHFFFAOYSA-N

$$$$
smi16_conf0
     RDKit          3D

 41 43  0  0  0  0  0  0  0  0999 V2000
    2.1745    0.9468    0.9924 C   0  0  0  0  0  0  0  0  0  0  0  0
    1.4860    0.0000    0.0000 C   0  0  1  0  0  0  0  0  0  0  0  0
    2.1046   -1.3070    0.0000 N   0  0  0  0  0  0  0  0  0  0  0  0
    3.3633   -1.6404   -0.4851 C   0  0  0  0  0  0  0  0  0  0  0  0
    4.0956   -0.5262   -1.0402 N   0  0  0  0  0  0  0  0  0  0  0  0
    5.3210   -0.7804   -1.5272 C   0  0  0  0  0  0  0  0  0  0  0  0
    6.3813   -1.0075   -1.9402 N   0  0  0  0  0  0  0  0  0  0  0  0
    3.9211   -2.8197   -0.4849 N   0  0  0  0  0  0  0  0  0  0  0  0
    3.1714   -3.8585    0.0620 C   0  0  0  0  0  0  0  0  0  0  0  0
    2.7822   -3.7623    1.3956 C   0  0  0  0  0  0  0  0  0  0  0  0
    2.0366   -4.7824    1.9803 C   0  0  0  0  0  0  0  0  0  0  0  0
    1.6824   -5.8947    1.2096 C   0  0  0  0  0  0  0  0  0  0  0  0
    2.0581   -6.0146   -0.1285 C   0  0  0  0  0  0  0  0  0  0  0  0
    1.6848   -7.1071   -0.8212 N   0  0  0  0  0  0  0  0  0  0  0  0
    2.0463   -7.2032   -2.1202 C   0  0  0  0  0  0  0  0  0  0  0  0
    2.7870   -6.2524   -2.7892 C   0  0  0  0  0  0  0  0  0  0  0  0
    3.1919   -5.1357   -2.0643 C   0  0  0  0  0  0  0  0  0  0  0  0
    2.8177   -4.9805   -0.7137 C   0  0  0  0  0  0  0  0  0  0  0  0
    0.0000    0.0000    0.0000 C   0  0  0  0  0  0  0  0  0  0  0  0
   -0.7111    0.0000    1.2027 C   0  0  0  0  0  0  0  0  0  0  0  0
   -2.1138    0.0010    1.2110 C   0  0  0  0  0  0  0  0  0  0  0  0
   -2.8620   -0.0009    0.0236 C   0  0  0  0  0  0  0  0  0  0  0  0
   -2.1126   -0.0155   -1.1687 C   0  0  0  0  0  0  0  0  0  0  0  0
   -0.7114   -0.0194   -1.1991 C   0  0  0  0  0  0  0  0  0  0  0  0
    1.8201    1.9760    0.8686 H   0  0  0  0  0  0  0  0  0  0  0  0
    3.2581    0.9499    0.8270 H   0  0  0  0  0  0  0  0  0  0  0  0
    2.0114    0.6668    2.0349 H   0  0  0  0  0  0  0  0  0  0  0  0
    1.7219    0.4363   -0.9815 H   0  0  0  0  0  0  0  0  0  0  0  0
    1.5348   -2.0442    0.4063 H   0  0  0  0  0  0  0  0  0  0  0  0
    3.6749    0.4094   -1.0555 H   0  0  0  0  0  0  0  0  0  0  0  0
    3.0685   -2.8867    1.9728 H   0  0  0  0  0  0  0  0  0  0  0  0
    1.7302   -4.7152    3.0192 H   0  0  0  0  0  0  0  0  0  0  0  0
    1.0944   -6.7014    1.6424 H   0  0  0  0  0  0  0  0  0  0  0  0
    1.7050   -8.0999   -2.6269 H   0  0  0  0  0  0  0  0  0  0  0  0
    3.0315   -6.3800   -3.8374 H   0  0  0  0  0  0  0  0  0  0  0  0
    3.7808   -4.3679   -2.5612 H   0  0  0  0  0  0  0  0  0  0  0  0
   -0.1814   -0.0042    2.1525 H   0  0  0  0  0  0  0  0  0  0  0  0
   -2.6026   -0.0043    2.1820 H   0  0  0  0  0  0  0  0  0  0  0  0
   -3.9439   -0.0005    0.0237 H   0  0  0  0  0  0  0  0  0  0  0  0
   -2.6514   -0.0242   -2.1154 H   0  0  0  0  0  0  0  0  0  0  0  0
   -0.1765   -0.0317   -2.1459 H   0  0  0  0  0  0  0  0  0  0  0  0
  2  1  1  0
  2  3  1  0
  3  4  1  0
  4  5  1  0
  5  6  1  0
  6  7  3  0
  4  8  2  0
  8  9  1  0
  9 10  2  0
 10 11  1  0
 11 12  2  0
 12 13  1  0
 13 14  2  0
 14 15  1  0
 15 16  2  0
 16 17  1  0
 17 18  2  0
  2 19  1  0
 19 20  2  0
 20 21  1  0
 21 22  2  0
 22 23  1  0
 23 24  2  0
 18  9  1  0
 24 19  1  0
 18 13  1  0
  1 25  1  0
  1 26  1  0
  1 27  1  0
  2 28  1  6
  3 29  1  0
  5 30  1  0
 10 31  1  0
 11 32  1  0
 12 33  1  0
 15 34  1  0
 16 35  1  0
 17 36  1  0
 20 37  1  0
 21 38  1  0
 22 39  1  0
 23 40  1  0
 24 41  1  0
M  END
>  <_MoleculeID>  (146) 
smi16

>  <_InputIndex>  (146) 
16

>  <_InputSMILES>  (146) 
C[C@H](N\C(NC#N)=N/c1cccc2ncccc12)c1ccccc1

>  <_InputInChIKey>  (146) 
PQYCRDPLPKGSME-AWEZNQCLSA-N

>  <_SMILES>  (146) 
C[C@H](N/C(=N\c1cccc2ncccc12)NC#N)c1ccccc1

>  <_InChIKey>  (146) 
PQYCRDPLPKGSME-AWEZNQCLSA-N

$$$$
smi16_conf1
     RDKit          3D

 41 43  0  0  0  0  0  0  0  0999 V2000
    2.1745    1.3632    0.1517 C   0  0  0  0  0  0  0  0  0  0  0  0
    1.4860    0.0000    0.0000 C   0  0  1  0  0  0  0  0  0  0  0  0
    2.1046   -1.0012    0.8401 N   0  0  0  0  0  0  0  0  0  0  0  0
    3.3633   -1.5685    0.6828 C   0  0  0  0  0  0  0  0  0  0  0  0
    4.0956   -1.0717   -0.4586 N   0  0  0  0  0  0  0  0  0  0  0  0
    5.3210   -1.5795   -0.6683 C   0  0  0  0  0  0  0  0  0  0  0  0
    6.3813   -2.0189   -0.8386 N   0  0  0  0  0  0  0  0  0  0  0  0
    3.9211   -2.4717    1.4410 N   0  0  0  0  0  0  0  0  0  0  0  0
    3.1714   -2.9159    2.5277 C   0  0  0  0  0  0  0  0  0  0  0  0
    1.9381   -3.5133    2.2804 C   0  0  0  0  0  0  0  0  0  0  0  0
    1.1567   -3.9655    3.3402 C   0  0  0  0  0  0  0  0  0  0  0  0
    1.6305   -3.8163    4.6479 C   0  0  0  0  0  0  0  0  0  0  0  0
    2.8629   -3.2231    4.9225 C   0  0  0  0  0  0  0  0  0  0  0  0
    3.2679   -3.1100    6.2015 N   0  0  0  0  0  0  0  0  0  0  0  0
    4.4698   -2.5436    6.4508 C   0  0  0  0  0  0  0  0  0  0  0  0
    5.3146   -2.0606    5.4745 C   0  0  0  0  0  0  0  0  0  0  0  0
    4.8827   -2.1570    4.1552 C   0  0  0  0  0  0  0  0  0  0  0  0
    3.6475   -2.7622    3.8451 C   0  0  0  0  0  0  0  0  0  0  0  0
    0.0000    0.0000    0.0000 C   0  0  0  0  0  0  0  0  0  0  0  0
   -0.7111    0.0000    1.2027 C   0  0  0  0  0  0  0  0  0  0  0  0
   -2.1138    0.0010    1.2110 C   0  0  0  0  0  0  0  0  0  0  0  0
   -2.8620   -0.0009    0.0236 C   0  0  0  0  0  0  0  0  0  0  0  0
   -2.1126   -0.0155   -1.1687 C   0  0  0  0  0  0  0  0  0  0  0  0
   -0.7114   -0.0194   -1.1991 C   0  0  0  0  0  0  0  0  0  0  0  0
    1.8201    2.0720   -0.6048 H   0  0  0  0  0  0  0  0  0  0  0  0
    3.2581    1.2593    0.0230 H   0  0  0  0  0  0  0  0  0  0  0  0
    2.0114    1.8188    1.1302 H   0  0  0  0  0  0  0  0  0  0  0  0
    1.7219   -0.2966   -1.0323 H   0  0  0  0  0  0  0  0  0  0  0  0
    1.5348   -1.3048    1.6252 H   0  0  0  0  0  0  0  0  0  0  0  0
    3.6749   -0.3649   -1.0717 H   0  0  0  0  0  0  0  0  0  0  0  0
    1.5931   -3.6193    1.2549 H   0  0  0  0  0  0  0  0  0  0  0  0
    0.1941   -4.4314    3.1558 H   0  0  0  0  0  0  0  0  0  0  0  0
    1.0408   -4.1679    5.4920 H   0  0  0  0  0  0  0  0  0  0  0  0
    4.7451   -2.4927    7.4991 H   0  0  0  0  0  0  0  0  0  0  0  0
    6.2744   -1.6314    5.7378 H   0  0  0  0  0  0  0  0  0  0  0  0
    5.5238   -1.7821    3.3604 H   0  0  0  0  0  0  0  0  0  0  0  0
   -0.1814   -0.0042    2.1525 H   0  0  0  0  0  0  0  0  0  0  0  0
   -2.6026   -0.0043    2.1820 H   0  0  0  0  0  0  0  0  0  0  0  0
   -3.9439   -0.0005    0.0237 H   0  0  0  0  0  0  0  0  0  0  0  0
   -2.6514   -0.0242   -2.1154 H   0  0  0  0  0  0  0  0  0  0  0  0
   -0.1765   -0.0317   -2.1459 H   0  0  0  0  0  0  0  0  0  0  0  0
  2  1  1  0
  2  3  1  0
  3  4  1  0
  4  5  1  0
  5  6  1  0
  6  7  3  0
  4  8  2  0
  8  9  1  0
  9 10  2  0
 10 11  1  0
 11 12  2  0
 12 13  1  0
 13 14  2  0
 14 15  1  0
 15 16  2  0
 16 17  1  0
 17 18  2  0
  2 19  1  0
 19 20  2  0
 20 21  1  0
 21 22  2  0
 22 23  1  0
 23 24  2  0
 18  9  1  0
 24 19  1  0
 18 13  1  0
  1 25  1  0
  1 26  1  0
  1 27  1  0
  2 28  1  6
  3 29  1  0
  5 30  1  0
 10 31  1  0
 11 32  1  0
 12 33  1  0
 15 34  1  0
 16 35  1  0
 17 36  1  0
 20 37  1  0
 21 38  1  0
 22 39  1  0
 23 40  1  0
 24 41  1  0
M  END
>  <_MoleculeID>  (147) 
smi16

>  <_InputIndex>  (147) 
16

>  <_InputSMILES>  (147) 
C[C@H](N\C(NC#N)=N/c1cccc2ncccc12)c1ccccc1

>  <_InputInChIKey>  (147) 
PQYCRDPLPKGSME-AWEZNQCLSA-N

>  <_SMILES>  (147) 
C[C@H](N/C(=N\c1cccc2ncccc12)NC#N)c1ccccc1

>  <_InChIKey>  (147) 
PQYCRDPLPKGSME-AWEZNQCLSA-N

$$$$
smi16_conf2
     RDKit          3D

 41 43  0  0  0  0  0  0  0  0999 V2000
    2.1745    0.0874    1.3688 C   0  0  0  0  0  0  0  0  0  0  0  0
    1.4860   -0.0000    0.0000 C   0  0  1  0  0  0  0  0  0  0  0  0
    2.1046   -1.0012   -0.8401 N   0  0  0  0  0  0  0  0  0  0  0  0
    3.3633   -0.9448   -1.4261 C   0  0  0  0  0  0  0  0  0  0  0  0
    4.0956    0.2656   -1.1351 N   0  0  0  0  0  0  0  0  0  0  0  0
    5.3210    0.3838   -1.6715 C   0  0  0  0  0  0  0  0  0  0  0  0
    6.3813    0.4753   -2.1339 N   0  0  0  0  0  0  0  0  0  0  0  0
    3.9211   -1.8483   -2.1839 N   0  0  0  0  0  0  0  0  0  0  0  0
    3.1714   -2.9957   -2.4327 C   0  0  0  0  0  0  0  0  0  0  0  0
    1.9381   -2.8559   -3.0639 C   0  0  0  0  0  0  0  0  0  0  0  0
    1.1567   -3.9781   -3.3253 C   0  0  0  0  0  0  0  0  0  0  0  0
    1.6305   -5.2400   -2.9512 C   0  0  0  0  0  0  0  0  0  0  0  0
    2.8629   -5.4074   -2.3193 C   0  0  0  0  0  0  0  0  0  0  0  0
    3.2679   -6.6473   -1.9858 N   0  0  0  0  0  0  0  0  0  0  0  0
    4.4698   -6.7945   -1.3848 C   0  0  0  0  0  0  0  0  0  0  0  0
    5.3146   -5.7491   -1.0786 C   0  0  0  0  0  0  0  0  0  0  0  0
    4.8827   -4.4666   -1.4027 C   0  0  0  0  0  0  0  0  0  0  0  0
    3.6475   -4.2663   -2.0526 C   0  0  0  0  0  0  0  0  0  0  0  0
    0.0000    0.0000    0.0000 C   0  0  0  0  0  0  0  0  0  0  0  0
   -0.7111    0.0000    1.2027 C   0  0  0  0  0  0  0  0  0  0  0  0
   -2.1138    0.0010    1.2110 C   0  0  0  0  0  0  0  0  0  0  0  0
   -2.8620   -0.0009    0.0236 C   0  0  0  0  0  0  0  0  0  0  0  0
   -2.1126   -0.0155   -1.1687 C   0  0  0  0  0  0  0  0  0  0  0  0
   -0.7114   -0.0194   -1.1991 C   0  0  0  0  0  0  0  0  0  0  0  0
    1.8201    0.9554    1.9355 H   0  0  0  0  0  0  0  0  0  0  0  0
    3.2581    0.1961    1.2441 H   0  0  0  0  0  0  0  0  0  0  0  0
    2.0114   -0.7972    1.9874 H   0  0  0  0  0  0  0  0  0  0  0  0
    1.7219    0.9651   -0.4714 H   0  0  0  0  0  0  0  0  0  0  0  0
    1.5348   -1.8271   -1.0027 H   0  0  0  0  0  0  0  0  0  0  0  0
    3.6749    0.9920   -0.5454 H   0  0  0  0  0  0  0  0  0  0  0  0
    1.5931   -1.8644   -3.3464 H   0  0  0  0  0  0  0  0  0  0  0  0
    0.1941   -3.8773   -3.8161 H   0  0  0  0  0  0  0  0  0  0  0  0
    1.0408   -6.1323   -3.1509 H   0  0  0  0  0  0  0  0  0  0  0  0
    4.7451   -7.8181   -1.1527 H   0  0  0  0  0  0  0  0  0  0  0  0
    6.2744   -5.9340   -0.6102 H   0  0  0  0  0  0  0  0  0  0  0  0
    5.5238   -3.6188   -1.1715 H   0  0  0  0  0  0  0  0  0  0  0  0
   -0.1814   -0.0042    2.1525 H   0  0  0  0  0  0  0  0  0  0  0  0
   -2.6026   -0.0043    2.1820 H   0  0  0  0  0  0  0  0  0  0  0  0
   -3.9439   -0.0005    0.0237 H   0  0  0  0  0  0  0  0  0  0  0  0
   -2.6514   -0.0242   -2.1154 H   0  0  0  0  0  0  0  0  0  0  0  0
   -0.1765   -0.0317   -2.1459 H   0  0  0  0  0  0  0  0  0  0  0  0
  2  1  1  0
  2  3  1  0
  3  4  1  0
  4  5  1  0
  5  6  1  0
  6  7  3  0
  4  8  2  0
  8  9  1  0
  9 10  2  0
 10 11  1  0
 11 12  2  0
 12 13  1  0
 13 14  2  0
 14 15  1  0
 15 16  2  0
 16 17  1  0
 17 18  2  0
  2 19  1  0
 19 20  2  0
 20 21  1  0
 21 22  2  0
 22 23  1  0
 23 24  2  0
 18  9  1  0
 24 19  1  0
 18 13  1  0
  1 25  1  0
  1 26  1  0
  1 27  1  0
  2 28  1  6
  3 29  1  0
  5 30  1  0
 10 31  1  0
 11 32  1  0
 12 33  1  0
 15 34  1  0
 16 35  1  0
 17 36  1  0
 20 37  1  0
 21 38  1  0
 22 39  1  0
 23 40  1  0
 24 41  1  0
M  END
>  <_MoleculeID>  (148) 
smi16

>  <_InputIndex>  (148) 
16

>  <_InputSMILES>  (148) 
C[C@H](N\C(NC#N)=N/c1cccc2ncccc12)c1ccccc1

>  <_InputInChIKey>  (148) 
PQYCRDPLPKGSME-AWEZNQCLSA-N

>  <_SMILES>  (148) 
C[C@H](N/C(=N\c1cccc2ncccc12)NC#N)c1ccccc1

>  <_InChIKey>  (148) 
PQYCRDPLPKGSME-AWEZNQCLSA-N

$$$$
smi16_conf3
     RDKit          3D

 41 43  0  0  0  0  0  0  0  0999 V2000
    2.1745    0.9468    0.9924 C   0  0  0  0  0  0  0  0  0  0  0  0
    1.4860    0.0000    0.0000 C   0  0  1  0  0  0  0  0  0  0  0  0
    2.1046   -1.3070    0.0000 N   0  0  0  0  0  0  0  0  0  0  0  0
    3.3633   -1.6404   -0.4851 C   0  0  0  0  0  0  0  0  0  0  0  0
    4.0956   -0.5262   -1.0402 N   0  0  0  0  0  0  0  0  0  0  0  0
    5.3210   -0.7804   -1.5272 C   0  0  0  0  0  0  0  0  0  0  0  0
    6.3813   -1.0075   -1.9402 N   0  0  0  0  0  0  0  0  0  0  0  0
    3.9211   -2.8197   -0.4849 N   0  0  0  0  0  0  0  0  0  0  0  0
    3.1714   -3.8585    0.0620 C   0  0  0  0  0  0  0  0  0  0  0  0
    3.6928   -4.5463    1.1549 C   0  0  0  0  0  0  0  0  0  0  0  0
    2.9763   -5.5942    1.7265 C   0  0  0  0  0  0  0  0  0  0  0  0
    1.7300   -5.9382    1.1923 C   0  0  0  0  0  0  0  0  0  0  0  0
    1.1847   -5.2642    0.0994 C   0  0  0  0  0  0  0  0  0  0  0  0
   -0.0209   -5.6380   -0.3690 N   0  0  0  0  0  0  0  0  0  0  0  0
   -0.5415   -4.9675   -1.4211 C   0  0  0  0  0  0  0  0  0  0  0  0
    0.0889   -3.9212   -2.0598 C   0  0  0  0  0  0  0  0  0  0  0  0
    1.3453   -3.5527   -1.5887 C   0  0  0  0  0  0  0  0  0  0  0  0
    1.9176   -4.2070   -0.4785 C   0  0  0  0  0  0  0  0  0  0  0  0
    0.0000    0.0000    0.0000 C   0  0  0  0  0  0  0  0  0  0  0  0
   -0.7111    0.0000    1.2027 C   0  0  0  0  0  0  0  0  0  0  0  0
   -2.1138    0.0010    1.2110 C   0  0  0  0  0  0  0  0  0  0  0  0
   -2.8620   -0.0009    0.0236 C   0  0  0  0  0  0  0  0  0  0  0  0
   -2.1126   -0.0155   -1.1687 C   0  0  0  0  0  0  0  0  0  0  0  0
   -0.7114   -0.0194   -1.1991 C   0  0  0  0  0  0  0  0  0  0  0  0
    1.8201    1.9760    0.8686 H   0  0  0  0  0  0  0  0  0  0  0  0
    3.2581    0.9499    0.8270 H   0  0  0  0  0  0  0  0  0  0  0  0
    2.0114    0.6668    2.0349 H   0  0  0  0  0  0  0  0  0  0  0  0
    1.7219    0.4363   -0.9815 H   0  0  0  0  0  0  0  0  0  0  0  0
    1.5348   -2.0442    0.4063 H   0  0  0  0  0  0  0  0  0  0  0  0
    3.6749    0.4094   -1.0555 H   0  0  0  0  0  0  0  0  0  0  0  0
    4.6627   -4.2583    1.5527 H   0  0  0  0  0  0  0  0  0  0  0  0
    3.3762   -6.1356    2.5777 H   0  0  0  0  0  0  0  0  0  0  0  0
    1.1485   -6.7491    1.6261 H   0  0  0  0  0  0  0  0  0  0  0  0
   -1.5202   -5.3073   -1.7437 H   0  0  0  0  0  0  0  0  0  0  0  0
   -0.3887   -3.4124   -2.8892 H   0  0  0  0  0  0  0  0  0  0  0  0
    1.8718   -2.7330   -2.0726 H   0  0  0  0  0  0  0  0  0  0  0  0
   -0.1814   -0.0042    2.1525 H   0  0  0  0  0  0  0  0  0  0  0  0
   -2.6026   -0.0043    2.1820 H   0  0  0  0  0  0  0  0  0  0  0  0
   -3.9439   -0.0005    0.0237 H   0  0  0  0  0  0  0  0  0  0  0  0
   -2.6514   -0.0242   -2.1154 H   0  0  0  0  0  0  0  0  0  0  0  0
   -0.1765   -0.0317   -2.1459 H   0  0  0  0  0  0  0  0  0  0  0  0
  2  1  1  0
  2  3  1  0
  3  4  1  0
  4  5  1  0
  5  6  1  0
  6  7  3  0
  4  8  2  0
  8  9  1  0
  9 10  2  0
 10 11  1  0
 11 12  2  0
 12 13  1  0
 13 14  2  0
 14 15  1  0
 15 16  2  0
 16 17  1  0
 17 18  2  0
  2 19  1  0
 19 20  2  0
 20 21  1  0
 21 22  2  0
 22 23  1  0
 23 24  2  0
 18  9  1  0
 24 19  1  0
 18 13  1  0
  1 25  1  0
  1 26  1  0
  1 27  1  0
  2 28  1  6
  3 29  1  0
  5 30  1  0
 10 31  1  0
 11 32  1  0
 12 33  1  0
 15 34  1  0
 16 35  1  0
 17 36  1  0
 20 37  1  0
 21 38  1  0
 22 39  1  0
 23 40  1  0
 24 41  1  0
M  END
>  <_MoleculeID>  (149) 
smi16

>  <_InputIndex>  (149) 
16

>  <_InputSMILES>  (149) 
C[C@H](N\C(NC#N)=N/c1cccc2ncccc12)c1ccccc1

>  <_InputInChIKey>  (149) 
PQYCRDPLPKGSME-AWEZNQCLSA-N

>  <_SMILES>  (149) 
C[C@H](N/C(=N\c1cccc2ncccc12)NC#N)c1ccccc1

>  <_InChIKey>  (149) 
PQYCRDPLPKGSME-AWEZNQCLSA-N

$$$$
smi16_conf4
     RDKit          3D

 41 43  0  0  0  0  0  0  0  0999 V2000
    2.1745    0.0874    1.3688 C   0  0  0  0  0  0  0  0  0  0  0  0
    1.4860   -0.0000    0.0000 C   0  0  1  0  0  0  0  0  0  0  0  0
    2.1046   -1.0012   -0.8401 N   0  0  0  0  0  0  0  0  0  0  0  0
    2.0567   -2.3804   -0.6772 C   0  0  0  0  0  0  0  0  0  0  0  0
    1.2940   -2.8126    0.4705 N   0  0  0  0  0  0  0  0  0  0  0  0
    1.2079   -4.1353    0.6857 C   0  0  0  0  0  0  0  0  0  0  0  0
    1.1333   -5.2800    0.8609 N   0  0  0  0  0  0  0  0  0  0  0  0
    2.6148   -3.2834   -1.4354 N   0  0  0  0  0  0  0  0  0  0  0  0
    3.3385   -2.8121   -2.5284 C   0  0  0  0  0  0  0  0  0  0  0  0
    2.9423   -3.2067   -3.8038 C   0  0  0  0  0  0  0  0  0  0  0  0
    3.6431   -2.7613   -4.9213 C   0  0  0  0  0  0  0  0  0  0  0  0
    4.7403   -1.9120   -4.7432 C   0  0  0  0  0  0  0  0  0  0  0  0
    5.1565   -1.5007   -3.4768 C   0  0  0  0  0  0  0  0  0  0  0  0
    6.2178   -0.6795   -3.3679 N   0  0  0  0  0  0  0  0  0  0  0  0
    6.6017   -0.2800   -2.1348 C   0  0  0  0  0  0  0  0  0  0  0  0
    5.9792   -0.6676   -0.9676 C   0  0  0  0  0  0  0  0  0  0  0  0
    4.8974   -1.5355   -1.0817 C   0  0  0  0  0  0  0  0  0  0  0  0
    4.4458   -1.9594   -2.3484 C   0  0  0  0  0  0  0  0  0  0  0  0
    0.0000    0.0000    0.0000 C   0  0  0  0  0  0  0  0  0  0  0  0
   -0.7111    0.0000    1.2027 C   0  0  0  0  0  0  0  0  0  0  0  0
   -2.1138    0.0010    1.2110 C   0  0  0  0  0  0  0  0  0  0  0  0
   -2.8620   -0.0009    0.0236 C   0  0  0  0  0  0  0  0  0  0  0  0
   -2.1126   -0.0155   -1.1687 C   0  0  0  0  0  0  0  0  0  0  0  0
   -0.7114   -0.0194   -1.1991 C   0  0  0  0  0  0  0  0  0  0  0  0
    1.8201    0.9554    1.9355 H   0  0  0  0  0  0  0  0  0  0  0  0
    3.2581    0.1961    1.2441 H   0  0  0  0  0  0  0  0  0  0  0  0
    2.0114   -0.7972    1.9874 H   0  0  0  0  0  0  0  0  0  0  0  0
    1.7219    0.9651   -0.4714 H   0  0  0  0  0  0  0  0  0  0  0  0
    2.6242   -0.6278   -1.6299 H   0  0  0  0  0  0  0  0  0  0  0  0
    0.8504   -2.1200    1.0837 H   0  0  0  0  0  0  0  0  0  0  0  0
    2.0850   -3.8658   -3.9157 H   0  0  0  0  0  0  0  0  0  0  0  0
    3.3411   -3.0650   -5.9184 H   0  0  0  0  0  0  0  0  0  0  0  0
    5.2995   -1.5455   -5.6015 H   0  0  0  0  0  0  0  0  0  0  0  0
    7.4546    0.3904   -2.1138 H   0  0  0  0  0  0  0  0  0  0  0  0
    6.3251   -0.2993   -0.0087 H   0  0  0  0  0  0  0  0  0  0  0  0
    4.3856   -1.8638   -0.1797 H   0  0  0  0  0  0  0  0  0  0  0  0
   -0.1814   -0.0042    2.1525 H   0  0  0  0  0  0  0  0  0  0  0  0
   -2.6026   -0.0043    2.1820 H   0  0  0  0  0  0  0  0  0  0  0  0
   -3.9439   -0.0005    0.0237 H   0  0  0  0  0  0  0  0  0  0  0  0
   -2.6514   -0.0242   -2.1154 H   0  0  0  0  0  0  0  0  0  0  0  0
   -0.1765   -0.0317   -2.1459 H   0  0  0  0  0  0  0  0  0  0  0  0
  2  1  1  0
  2  3  1  0
  3  4  1  0
  4  5  1  0
  5  6  1  0
  6  7  3  0
  4  8  2  0
  8  9  1  0
  9 10  2  0
 10 11  1  0
 11 12  2  0
 12 13  1  0
 13 14  2  0
 14 15  1  0
 15 16  2  0
 16 17  1  0
 17 18  2  0
  2 19  1  0
 19 20  2  0
 20 21  1  0
 21 22  2  0
 22 23  1  0
 23 24  2  0
 18  9  1  0
 24 19  1  0
 18 13  1  0
  1 25  1  0
  1 26  1  0
  1 27  1  0
  2 28  1  6
  3 29  1  0
  5 30  1  0
 10 31  1  0
 11 32  1  0
 12 33  1  0
 15 34  1  0
 16 35  1  0
 17 36  1  0
 20 37  1  0
 21 38  1  0
 22 39  1  0
 23 40  1  0
 24 41  1  0
M  END
>  <_MoleculeID>  (150) 
smi16

>  <_InputIndex>  (150) 
16

>  <_InputSMILES>  (150) 
C[C@H](N\C(NC#N)=N/c1cccc2ncccc12)c1ccccc1

>  <_InputInChIKey>  (150) 
PQYCRDPLPKGSME-AWEZNQCLSA-N

>  <_SMILES>  (150) 
C[C@H](N/C(=N\c1cccc2ncccc12)NC#N)c1ccccc1

>  <_InChIKey>  (150) 
PQYCRDPLPKGSME-AWEZNQCLSA-N

$$$$
smi16_conf5
     RDKit          3D

 41 43  0  0  0  0  0  0  0  0999 V2000
    2.1745    1.3632    0.1517 C   0  0  0  0  0  0  0  0  0  0  0  0
    1.4860    0.0000    0.0000 C   0  0  1  0  0  0  0  0  0  0  0  0
    2.1046   -1.0012    0.8401 N   0  0  0  0  0  0  0  0  0  0  0  0
    1.7441   -2.3381    0.9578 C   0  0  0  0  0  0  0  0  0  0  0  0
    0.6239   -2.7219    0.1310 N   0  0  0  0  0  0  0  0  0  0  0  0
    0.2240   -4.0021    0.1974 C   0  0  0  0  0  0  0  0  0  0  0  0
   -0.1111   -5.1115    0.2562 N   0  0  0  0  0  0  0  0  0  0  0  0
    2.3025   -3.2411    1.7158 N   0  0  0  0  0  0  0  0  0  0  0  0
    3.3784   -2.8175    2.4925 C   0  0  0  0  0  0  0  0  0  0  0  0
    4.4988   -2.3021    1.8457 C   0  0  0  0  0  0  0  0  0  0  0  0
    5.5966   -1.8731    2.5866 C   0  0  0  0  0  0  0  0  0  0  0  0
    5.5533   -1.9621    3.9820 C   0  0  0  0  0  0  0  0  0  0  0  0
    4.4427   -2.4728    4.6543 C   0  0  0  0  0  0  0  0  0  0  0  0
    4.4573   -2.5307    5.9993 N   0  0  0  0  0  0  0  0  0  0  0  0
    3.3690   -3.0169    6.6369 C   0  0  0  0  0  0  0  0  0  0  0  0
    2.2360   -3.4709    5.9963 C   0  0  0  0  0  0  0  0  0  0  0  0
    2.2332   -3.4322    4.6053 C   0  0  0  0  0  0  0  0  0  0  0  0
    3.3359   -2.9106    3.8980 C   0  0  0  0  0  0  0  0  0  0  0  0
    0.0000    0.0000    0.0000 C   0  0  0  0  0  0  0  0  0  0  0  0
   -0.7111    0.0000    1.2027 C   0  0  0  0  0  0  0  0  0  0  0  0
   -2.1138    0.0010    1.2110 C   0  0  0  0  0  0  0  0  0  0  0  0
   -2.8620   -0.0009    0.0236 C   0  0  0  0  0  0  0  0  0  0  0  0
   -2.1126   -0.0155   -1.1687 C   0  0  0  0  0  0  0  0  0  0  0  0
   -0.7114   -0.0194   -1.1991 C   0  0  0  0  0  0  0  0  0  0  0  0
    1.8201    2.0720   -0.6048 H   0  0  0  0  0  0  0  0  0  0  0  0
    3.2581    1.2593    0.0230 H   0  0  0  0  0  0  0  0  0  0  0  0
    2.0114    1.8188    1.1302 H   0  0  0  0  0  0  0  0  0  0  0  0
    1.7219   -0.2966   -1.0323 H   0  0  0  0  0  0  0  0  0  0  0  0
    2.8872   -0.6634    1.3939 H   0  0  0  0  0  0  0  0  0  0  0  0
    0.1660   -2.0274   -0.4694 H   0  0  0  0  0  0  0  0  0  0  0  0
    4.5069   -2.2416    0.7603 H   0  0  0  0  0  0  0  0  0  0  0  0
    6.4737   -1.4710    2.0899 H   0  0  0  0  0  0  0  0  0  0  0  0
    6.3963   -1.6270    4.5828 H   0  0  0  0  0  0  0  0  0  0  0  0
    3.4368   -3.0261    7.7197 H   0  0  0  0  0  0  0  0  0  0  0  0
    1.3883   -3.8347    6.5654 H   0  0  0  0  0  0  0  0  0  0  0  0
    1.3559   -3.7863    4.0684 H   0  0  0  0  0  0  0  0  0  0  0  0
   -0.1814   -0.0042    2.1525 H   0  0  0  0  0  0  0  0  0  0  0  0
   -2.6026   -0.0043    2.1820 H   0  0  0  0  0  0  0  0  0  0  0  0
   -3.9439   -0.0005    0.0237 H   0  0  0  0  0  0  0  0  0  0  0  0
   -2.6514   -0.0242   -2.1154 H   0  0  0  0  0  0  0  0  0  0  0  0
   -0.1765   -0.0317   -2.1459 H   0  0  0  0  0  0  0  0  0  0  0  0
  2  1  1  0
  2  3  1  0
  3  4  1  0
  4  5  1  0
  5  6  1  0
  6  7  3  0
  4  8  2  0
  8  9  1  0
  9 10  2  0
 10 11  1  0
 11 12  2  0
 12 13  1  0
 13 14  2  0
 14 15  1  0
 15 16  2  0
 16 17  1  0
 17 18  2  0
  2 19  1  0
 19 20  2  0
 20 21  1  0
 21 22  2  0
 22 23  1  0
 23 24  2  0
 18  9  1  0
 24 19  1  0
 18 13  1  0
  1 25  1  0
  1 26  1  0
  1 27  1  0
  2 28  1  6
  3 29  1  0
  5 30  1  0
 10 31  1  0
 11 32  1  0
 12 33  1  0
 15 34  1  0
 16 35  1  0
 17 36  1  0
 20 37  1  0
 21 38  1  0
 22 39  1  0
 23 40  1  0
 24 41  1  0
M  END
>  <_MoleculeID>  (151) 
smi16

>  <_InputIndex>  (151) 
16

>  <_InputSMILES>  (151) 
C[C@H](N\C(NC#N)=N/c1cccc2ncccc12)c1ccccc1

>  <_InputInChIKey>  (151) 
PQYCRDPLPKGSME-AWEZNQCLSA-N

>  <_SMILES>  (151) 
C[C@H](N/C(=N\c1cccc2ncccc12)NC#N)c1ccccc1

>  <_InChIKey>  (151) 
PQYCRDPLPKGSME-AWEZNQCLSA-N

$$$$
smi16_conf6
     RDKit          3D

 41 43  0  0  0  0  0  0  0  0999 V2000
    2.1745    0.0874    1.3688 C   0  0  0  0  0  0  0  0  0  0  0  0
    1.4860   -0.0000    0.0000 C   0  0  1  0  0  0  0  0  0  0  0  0
    2.1046   -1.0012   -0.8401 N   0  0  0  0  0  0  0  0  0  0  0  0
    3.3633   -0.9448   -1.4261 C   0  0  0  0  0  0  0  0  0  0  0  0
    4.0956    0.2656   -1.1351 N   0  0  0  0  0  0  0  0  0  0  0  0
    5.3210    0.3838   -1.6715 C   0  0  0  0  0  0  0  0  0  0  0  0
    6.3813    0.4753   -2.1339 N   0  0  0  0  0  0  0  0  0  0  0  0
    3.9211   -1.8483   -2.1839 N   0  0  0  0  0  0  0  0  0  0  0  0
    3.1714   -2.9957   -2.4327 C   0  0  0  0  0  0  0  0  0  0  0  0
    2.8487   -3.3016   -3.7523 C   0  0  0  0  0  0  0  0  0  0  0  0
    2.0963   -4.4368   -4.0415 C   0  0  0  0  0  0  0  0  0  0  0  0
    1.6781   -5.2622   -2.9924 C   0  0  0  0  0  0  0  0  0  0  0  0
    1.9894   -4.9792   -1.6623 C   0  0  0  0  0  0  0  0  0  0  0  0
    1.5622   -5.8126   -0.6951 N   0  0  0  0  0  0  0  0  0  0  0  0
    1.8820   -5.5313    0.5879 C   0  0  0  0  0  0  0  0  0  0  0  0
    2.6164   -4.4321    0.9786 C   0  0  0  0  0  0  0  0  0  0  0  0
    3.0362   -3.5596   -0.0209 C   0  0  0  0  0  0  0  0  0  0  0  0
    2.7474   -3.8250   -1.3753 C   0  0  0  0  0  0  0  0  0  0  0  0
    0.0000    0.0000    0.0000 C   0  0  0  0  0  0  0  0  0  0  0  0
   -0.7111    0.0000    1.2027 C   0  0  0  0  0  0  0  0  0  0  0  0
   -2.1138    0.0010    1.2110 C   0  0  0  0  0  0  0  0  0  0  0  0
   -2.8620   -0.0009    0.0236 C   0  0  0  0  0  0  0  0  0  0  0  0
   -2.1126   -0.0155   -1.1687 C   0  0  0  0  0  0  0  0  0  0  0  0
   -0.7114   -0.0194   -1.1991 C   0  0  0  0  0  0  0  0  0  0  0  0
    1.8201    0.9554    1.9355 H   0  0  0  0  0  0  0  0  0  0  0  0
    3.2581    0.1961    1.2441 H   0  0  0  0  0  0  0  0  0  0  0  0
    2.0114   -0.7972    1.9874 H   0  0  0  0  0  0  0  0  0  0  0  0
    1.7219    0.9651   -0.4714 H   0  0  0  0  0  0  0  0  0  0  0  0
    1.5348   -1.8271   -1.0027 H   0  0  0  0  0  0  0  0  0  0  0  0
    3.6749    0.9920   -0.5454 H   0  0  0  0  0  0  0  0  0  0  0  0
    3.1873   -2.6451   -4.5499 H   0  0  0  0  0  0  0  0  0  0  0  0
    1.8401   -4.6816   -5.0672 H   0  0  0  0  0  0  0  0  0  0  0  0
    1.0950   -6.1583   -3.1940 H   0  0  0  0  0  0  0  0  0  0  0  0
    1.5199   -6.2465    1.3190 H   0  0  0  0  0  0  0  0  0  0  0  0
    2.8542   -4.2702    2.0236 H   0  0  0  0  0  0  0  0  0  0  0  0
    3.6149   -2.6804    0.2537 H   0  0  0  0  0  0  0  0  0  0  0  0
   -0.1814   -0.0042    2.1525 H   0  0  0  0  0  0  0  0  0  0  0  0
   -2.6026   -0.0043    2.1820 H   0  0  0  0  0  0  0  0  0  0  0  0
   -3.9439   -0.0005    0.0237 H   0  0  0  0  0  0  0  0  0  0  0  0
   -2.6514   -0.0242   -2.1154 H   0  0  0  0  0  0  0  0  0  0  0  0
   -0.1765   -0.0317   -2.1459 H   0  0  0  0  0  0  0  0  0  0  0  0
  2  1  1  0
  2  3  1  0
  3  4  1  0
  4  5  1  0
  5  6  1  0
  6  7  3  0
  4  8  2  0
  8  9  1  0
  9 10  2  0
 10 11  1  0
 11 12  2  0
 12 13  1  0
 13 14  2  0
 14 15  1  0
 15 16  2  0
 16 17  1  0
 17 18  2  0
  2 19  1  0
 19 20  2  0
 20 21  1  0
 21 22  2  0
 22 23  1  0
 23 24  2  0
 18  9  1  0
 24 19  1  0
 18 13  1  0
  1 25  1  0
  1 26  1  0
  1 27  1  0
  2 28  1  6
  3 29  1  0
  5 30  1  0
 10 31  1  0
 11 32  1  0
 12 33  1  0
 15 34  1  0
 16 35  1  0
 17 36  1  0
 20 37  1  0
 21 38  1  0
 22 39  1  0
 23 40  1  0
 24 41  1  0
M  END
>  <_MoleculeID>  (152) 
smi16

>  <_InputIndex>  (152) 
16

>  <_InputSMILES>  (152) 
C[C@H](N\C(NC#N)=N/c1cccc2ncccc12)c1ccccc1

>  <_InputInChIKey>  (152) 
PQYCRDPLPKGSME-AWEZNQCLSA-N

>  <_SMILES>  (152) 
C[C@H](N/C(=N\c1cccc2ncccc12)NC#N)c1ccccc1

>  <_InChIKey>  (152) 
PQYCRDPLPKGSME-AWEZNQCLSA-N

$$$$
smi16_conf7
     RDKit          3D

 41 43  0  0  0  0  0  0  0  0999 V2000
    2.1745    0.0874    1.3688 C   0  0  0  0  0  0  0  0  0  0  0  0
    1.4860   -0.0000    0.0000 C   0  0  1  0  0  0  0  0  0  0  0  0
    2.1046   -1.0012   -0.8401 N   0  0  0  0  0  0  0  0  0  0  0  0
    2.0567   -2.3804   -0.6772 C   0  0  0  0  0  0  0  0  0  0  0  0
    1.2940   -2.8126    0.4705 N   0  0  0  0  0  0  0  0  0  0  0  0
    1.2079   -4.1353    0.6857 C   0  0  0  0  0  0  0  0  0  0  0  0
    1.1333   -5.2800    0.8609 N   0  0  0  0  0  0  0  0  0  0  0  0
    2.6148   -3.2834   -1.4354 N   0  0  0  0  0  0  0  0  0  0  0  0
    3.3385   -2.8121   -2.5284 C   0  0  0  0  0  0  0  0  0  0  0  0
    4.6937   -3.1221   -2.6077 C   0  0  0  0  0  0  0  0  0  0  0  0
    5.4525   -2.6651   -3.6818 C   0  0  0  0  0  0  0  0  0  0  0  0
    4.8338   -1.8999   -4.6760 C   0  0  0  0  0  0  0  0  0  0  0  0
    3.4777   -1.5769   -4.6212 C   0  0  0  0  0  0  0  0  0  0  0  0
    2.9366   -0.8399   -5.6094 N   0  0  0  0  0  0  0  0  0  0  0  0
    1.6187   -0.5452   -5.5482 C   0  0  0  0  0  0  0  0  0  0  0  0
    0.7835   -0.9448   -4.5269 C   0  0  0  0  0  0  0  0  0  0  0  0
    1.3507   -1.6861   -3.4948 C   0  0  0  0  0  0  0  0  0  0  0  0
    2.7156   -2.0383   -3.5280 C   0  0  0  0  0  0  0  0  0  0  0  0
    0.0000    0.0000    0.0000 C   0  0  0  0  0  0  0  0  0  0  0  0
   -0.7111    0.0000    1.2027 C   0  0  0  0  0  0  0  0  0  0  0  0
   -2.1138    0.0010    1.2110 C   0  0  0  0  0  0  0  0  0  0  0  0
   -2.8620   -0.0009    0.0236 C   0  0  0  0  0  0  0  0  0  0  0  0
   -2.1126   -0.0155   -1.1687 C   0  0  0  0  0  0  0  0  0  0  0  0
   -0.7114   -0.0194   -1.1991 C   0  0  0  0  0  0  0  0  0  0  0  0
    1.8201    0.9554    1.9355 H   0  0  0  0  0  0  0  0  0  0  0  0
    3.2581    0.1961    1.2441 H   0  0  0  0  0  0  0  0  0  0  0  0
    2.0114   -0.7972    1.9874 H   0  0  0  0  0  0  0  0  0  0  0  0
    1.7219    0.9651   -0.4714 H   0  0  0  0  0  0  0  0  0  0  0  0
    2.6242   -0.6278   -1.6299 H   0  0  0  0  0  0  0  0  0  0  0  0
    0.8504   -2.1200    1.0837 H   0  0  0  0  0  0  0  0  0  0  0  0
    5.1506   -3.7201   -1.8232 H   0  0  0  0  0  0  0  0  0  0  0  0
    6.5093   -2.9017   -3.7504 H   0  0  0  0  0  0  0  0  0  0  0  0
    5.4044   -1.5371   -5.5285 H   0  0  0  0  0  0  0  0  0  0  0  0
    1.2398    0.0402   -6.3795 H   0  0  0  0  0  0  0  0  0  0  0  0
   -0.2698   -0.6899   -4.5434 H   0  0  0  0  0  0  0  0  0  0  0  0
    0.7201   -2.0144   -2.6714 H   0  0  0  0  0  0  0  0  0  0  0  0
   -0.1814   -0.0042    2.1525 H   0  0  0  0  0  0  0  0  0  0  0  0
   -2.6026   -0.0043    2.1820 H   0  0  0  0  0  0  0  0  0  0  0  0
   -3.9439   -0.0005    0.0237 H   0  0  0  0  0  0  0  0  0  0  0  0
   -2.6514   -0.0242   -2.1154 H   0  0  0  0  0  0  0  0  0  0  0  0
   -0.1765   -0.0317   -2.1459 H   0  0  0  0  0  0  0  0  0  0  0  0
  2  1  1  0
  2  3  1  0
  3  4  1  0
  4  5  1  0
  5  6  1  0
  6  7  3  0
  4  8  2  0
  8  9  1  0
  9 10  2  0
 10 11  1  0
 11 12  2  0
 12 13  1  0
 13 14  2  0
 14 15  1  0
 15 16  2  0
 16 17  1  0
 17 18  2  0
  2 19  1  0
 19 20  2  0
 20 21  1  0
 21 22  2  0
 22 23  1  0
 23 24  2  0
 18  9  1  0
 24 19  1  0
 18 13  1  0
  1 25  1  0
  1 26  1  0
  1 27  1  0
  2 28  1  6
  3 29  1  0
  5 30  1  0
 10 31  1  0
 11 32  1  0
 12 33  1  0
 15 34  1  0
 16 35  1  0
 17 36  1  0
 20 37  1  0
 21 38  1  0
 22 39  1  0
 23 40  1  0
 24 41  1  0
M  END
>  <_MoleculeID>  (153) 
smi16

>  <_InputIndex>  (153) 
16

>  <_InputSMILES>  (153) 
C[C@H](N\C(NC#N)=N/c1cccc2ncccc12)c1ccccc1

>  <_InputInChIKey>  (153) 
PQYCRDPLPKGSME-AWEZNQCLSA-N

>  <_SMILES>  (153) 
C[C@H](N/C(=N\c1cccc2ncccc12)NC#N)c1ccccc1

>  <_InChIKey>  (153) 
PQYCRDPLPKGSME-AWEZNQCLSA-N

$$$$
smi16_conf8
     RDKit          3D

 41 43  0  0  0  0  0  0  0  0999 V2000
    2.1745    1.3632    0.1517 C   0  0  0  0  0  0  0  0  0  0  0  0
    1.4860    0.0000    0.0000 C   0  0  1  0  0  0  0  0  0  0  0  0
    2.1046   -1.0012    0.8401 N   0  0  0  0  0  0  0  0  0  0  0  0
    1.7441   -2.3381    0.9578 C   0  0  0  0  0  0  0  0  0  0  0  0
    0.6239   -2.7219    0.1310 N   0  0  0  0  0  0  0  0  0  0  0  0
    0.2240   -4.0021    0.1974 C   0  0  0  0  0  0  0  0  0  0  0  0
   -0.1111   -5.1115    0.2562 N   0  0  0  0  0  0  0  0  0  0  0  0
    2.3025   -3.2411    1.7158 N   0  0  0  0  0  0  0  0  0  0  0  0
    3.3784   -2.8175    2.4925 C   0  0  0  0  0  0  0  0  0  0  0  0
    4.6133   -3.4329    2.3038 C   0  0  0  0  0  0  0  0  0  0  0  0
    5.7117   -3.0414    3.0644 C   0  0  0  0  0  0  0  0  0  0  0  0
    5.5567   -2.0226    4.0104 C   0  0  0  0  0  0  0  0  0  0  0  0
    4.3312   -1.3889    4.2176 C   0  0  0  0  0  0  0  0  0  0  0  0
    4.2435   -0.4122    5.1400 N   0  0  0  0  0  0  0  0  0  0  0  0
    3.0522    0.2005    5.3210 C   0  0  0  0  0  0  0  0  0  0  0  0
    1.9059   -0.1162    4.6239 C   0  0  0  0  0  0  0  0  0  0  0  0
    1.9937   -1.1424    3.6882 C   0  0  0  0  0  0  0  0  0  0  0  0
    3.2211   -1.7936    3.4478 C   0  0  0  0  0  0  0  0  0  0  0  0
    0.0000    0.0000    0.0000 C   0  0  0  0  0  0  0  0  0  0  0  0
   -0.7111    0.0000    1.2027 C   0  0  0  0  0  0  0  0  0  0  0  0
   -2.1138    0.0010    1.2110 C   0  0  0  0  0  0  0  0  0  0  0  0
   -2.8620   -0.0009    0.0236 C   0  0  0  0  0  0  0  0  0  0  0  0
   -2.1126   -0.0155   -1.1687 C   0  0  0  0  0  0  0  0  0  0  0  0
   -0.7114   -0.0194   -1.1991 C   0  0  0  0  0  0  0  0  0  0  0  0
    1.8201    2.0720   -0.6048 H   0  0  0  0  0  0  0  0  0  0  0  0
    3.2581    1.2593    0.0230 H   0  0  0  0  0  0  0  0  0  0  0  0
    2.0114    1.8188    1.1302 H   0  0  0  0  0  0  0  0  0  0  0  0
    1.7219   -0.2966   -1.0323 H   0  0  0  0  0  0  0  0  0  0  0  0
    2.8872   -0.6634    1.3939 H   0  0  0  0  0  0  0  0  0  0  0  0
    0.1660   -2.0274   -0.4694 H   0  0  0  0  0  0  0  0  0  0  0  0
    4.7082   -4.2209    1.5609 H   0  0  0  0  0  0  0  0  0  0  0  0
    6.6770   -3.5166    2.9239 H   0  0  0  0  0  0  0  0  0  0  0  0
    6.4019   -1.6947    4.6120 H   0  0  0  0  0  0  0  0  0  0  0  0
    3.0489    0.9869    6.0686 H   0  0  0  0  0  0  0  0  0  0  0  0
    0.9835    0.4239    4.8036 H   0  0  0  0  0  0  0  0  0  0  0  0
    1.1066   -1.4198    3.1231 H   0  0  0  0  0  0  0  0  0  0  0  0
   -0.1814   -0.0042    2.1525 H   0  0  0  0  0  0  0  0  0  0  0  0
   -2.6026   -0.0043    2.1820 H   0  0  0  0  0  0  0  0  0  0  0  0
   -3.9439   -0.0005    0.0237 H   0  0  0  0  0  0  0  0  0  0  0  0
   -2.6514   -0.0242   -2.1154 H   0  0  0  0  0  0  0  0  0  0  0  0
   -0.1765   -0.0317   -2.1459 H   0  0  0  0  0  0  0  0  0  0  0  0
  2  1  1  0
  2  3  1  0
  3  4  1  0
  4  5  1  0
  5  6  1  0
  6  7  3  0
  4  8  2  0
  8  9  1  0
  9 10  2  0
 10 11  1  0
 11 12  2  0
 12 13  1  0
 13 14  2  0
 14 15  1  0
 15 16  2  0
 16 17  1  0
 17 18  2  0
  2 19  1  0
 19 20  2  0
 20 21  1  0
 21 22  2  0
 22 23  1  0
 23 24  2  0
 18  9  1  0
 24 19  1  0
 18 13  1  0
  1 25  1  0
  1 26  1  0
  1 27  1  0
  2 28  1  6
  3 29  1  0
  5 30  1  0
 10 31  1  0
 11 32  1  0
 12 33  1  0
 15 34  1  0
 16 35  1  0
 17 36  1  0
 20 37  1  0
 21 38  1  0
 22 39  1  0
 23 40  1  0
 24 41  1  0
M  END
>  <_MoleculeID>  (154) 
smi16

>  <_InputIndex>  (154) 
16

>  <_InputSMILES>  (154) 
C[C@H](N\C(NC#N)=N/c1cccc2ncccc12)c1ccccc1

>  <_InputInChIKey>  (154) 
PQYCRDPLPKGSME-AWEZNQCLSA-N

>  <_SMILES>  (154) 
C[C@H](N/C(=N\c1cccc2ncccc12)NC#N)c1ccccc1

>  <_InChIKey>  (154) 
PQYCRDPLPKGSME-AWEZNQCLSA-N

$$$$
smi16_conf9
     RDKit          3D

 41 43  0  0  0  0  0  0  0  0999 V2000
    2.1745    0.9468    0.9924 C   0  0  0  0  0  0  0  0  0  0  0  0
    1.4860    0.0000    0.0000 C   0  0  1  0  0  0  0  0  0  0  0  0
    2.1046   -1.3070    0.0000 N   0  0  0  0  0  0  0  0  0  0  0  0
    2.0567   -2.2588    1.0113 C   0  0  0  0  0  0  0  0  0  0  0  0
    1.2940   -1.8521    2.1684 N   0  0  0  0  0  0  0  0  0  0  0  0
    1.2079   -2.7270    3.1834 C   0  0  0  0  0  0  0  0  0  0  0  0
    1.1333   -3.4913    4.0534 N   0  0  0  0  0  0  0  0  0  0  0  0
    2.6148   -3.4379    1.0109 N   0  0  0  0  0  0  0  0  0  0  0  0
    3.3385   -3.7794   -0.1293 C   0  0  0  0  0  0  0  0  0  0  0  0
    2.6703   -3.8153   -1.3506 C   0  0  0  0  0  0  0  0  0  0  0  0
    3.3574   -4.1573   -2.5122 C   0  0  0  0  0  0  0  0  0  0  0  0
    4.7217   -4.4563   -2.4334 C   0  0  0  0  0  0  0  0  0  0  0  0
    5.4146   -4.4260   -1.2230 C   0  0  0  0  0  0  0  0  0  0  0  0
    6.7283   -4.7200   -1.2097 N   0  0  0  0  0  0  0  0  0  0  0  0
    7.3886   -4.6748   -0.0310 C   0  0  0  0  0  0  0  0  0  0  0  0
    6.8000   -4.3531    1.1733 C   0  0  0  0  0  0  0  0  0  0  0  0
    5.4370   -4.0732    1.1602 C   0  0  0  0  0  0  0  0  0  0  0  0
    4.7120   -4.0840   -0.0491 C   0  0  0  0  0  0  0  0  0  0  0  0
    0.0000    0.0000    0.0000 C   0  0  0  0  0  0  0  0  0  0  0  0
   -0.7111    0.0000    1.2027 C   0  0  0  0  0  0  0  0  0  0  0  0
   -2.1138    0.0010    1.2110 C   0  0  0  0  0  0  0  0  0  0  0  0
   -2.8620   -0.0009    0.0236 C   0  0  0  0  0  0  0  0  0  0  0  0
   -2.1126   -0.0155   -1.1687 C   0  0  0  0  0  0  0  0  0  0  0  0
   -0.7114   -0.0194   -1.1991 C   0  0  0  0  0  0  0  0  0  0  0  0
    1.8201    1.9760    0.8686 H   0  0  0  0  0  0  0  0  0  0  0  0
    3.2581    0.9499    0.8270 H   0  0  0  0  0  0  0  0  0  0  0  0
    2.0114    0.6668    2.0349 H   0  0  0  0  0  0  0  0  0  0  0  0
    1.7219    0.4363   -0.9815 H   0  0  0  0  0  0  0  0  0  0  0  0
    2.6242   -1.5286   -0.8450 H   0  0  0  0  0  0  0  0  0  0  0  0
    0.8504   -0.9274    2.1929 H   0  0  0  0  0  0  0  0  0  0  0  0
    1.6102   -3.5768   -1.3855 H   0  0  0  0  0  0  0  0  0  0  0  0
    2.8436   -4.1883   -3.4675 H   0  0  0  0  0  0  0  0  0  0  0  0
    5.2814   -4.7198   -3.3284 H   0  0  0  0  0  0  0  0  0  0  0  0
    8.4465   -4.9093   -0.0877 H   0  0  0  0  0  0  0  0  0  0  0  0
    7.3879   -4.3182    2.0832 H   0  0  0  0  0  0  0  0  0  0  0  0
    4.9406   -3.8190    2.0942 H   0  0  0  0  0  0  0  0  0  0  0  0
   -0.1814   -0.0042    2.1525 H   0  0  0  0  0  0  0  0  0  0  0  0
   -2.6026   -0.0043    2.1820 H   0  0  0  0  0  0  0  0  0  0  0  0
   -3.9439   -0.0005    0.0237 H   0  0  0  0  0  0  0  0  0  0  0  0
   -2.6514   -0.0242   -2.1154 H   0  0  0  0  0  0  0  0  0  0  0  0
   -0.1765   -0.0317   -2.1459 H   0  0  0  0  0  0  0  0  0  0  0  0
  2  1  1  0
  2  3  1  0
  3  4  1  0
  4  5  1  0
  5  6  1  0
  6  7  3  0
  4  8  2  0
  8  9  1  0
  9 10  2  0
 10 11  1  0
 11 12  2  0
 12 13  1  0
 13 14  2  0
 14 15  1  0
 15 16  2  0
 16 17  1  0
 17 18  2  0
  2 19  1  0
 19 20  2  0
 20 21  1  0
 21 22  2  0
 22 23  1  0
 23 24  2  0
 18  9  1  0
 24 19  1  0
 18 13  1  0
  1 25  1  0
  1 26  1  0
  1 27  1  0
  2 28  1  6
  3 29  1  0
  5 30  1  0
 10 31  1  0
 11 32  1  0
 12 33  1  0
 15 34  1  0
 16 35  1  0
 17 36  1  0
 20 37  1  0
 21 38  1  0
 22 39  1  0
 23 40  1  0
 24 41  1  0
M  END
>  <_MoleculeID>  (155) 
smi16

>  <_InputIndex>  (155) 
16

>  <_InputSMILES>  (155) 
C[C@H](N\C(NC#N)=N/c1cccc2ncccc12)c1ccccc1

>  <_InputInChIKey>  (155) 
PQYCRDPLPKGSME-AWEZNQCLSA-N

>  <_SMILES>  (155) 
C[C@H](N/C(=N\c1cccc2ncccc12)NC#N)c1ccccc1

>  <_InChIKey>  (155) 
PQYCRDPLPKGSME-AWEZNQCLSA-N

$$$$
smi17_conf0
     RDKit          3D

 42 45  0  0  0  0  0  0  0  0999 V2000
   -5.8820   -3.0797    1.7622 Cl  0  0  0  0  0  0  0  0  0  0  0  0
   -4.3269   -3.4165    2.4181 C   0  0  0  0  0  0  0  0  0  0  0  0
   -4.0570   -3.1756    3.7675 C   0  0  0  0  0  0  0  0  0  0  0  0
   -2.7924   -3.4485    4.3097 C   0  0  0  0  0  0  0  0  0  0  0  0
   -1.7479   -3.9684    3.5297 C   0  0  0  0  0  0  0  0  0  0  0  0
   -2.0514   -4.1850    2.1717 C   0  0  0  0  0  0  0  0  0  0  0  0
   -3.3070   -3.9167    1.6095 C   0  0  0  0  0  0  0  0  0  0  0  0
   -3.6020   -4.2065   -0.0611 Cl  0  0  0  0  0  0  0  0  0  0  0  0
   -1.0542   -4.6903    1.3490 N   0  0  0  0  0  0  0  0  0  0  0  0
   -1.2214   -5.8659    0.7052 N   0  0  0  0  0  0  0  0  0  0  0  0
   -0.1084   -6.0561    0.0098 N   0  0  0  0  0  0  0  0  0  0  0  0
    0.7800   -5.0294    0.2076 N   0  0  0  0  0  0  0  0  0  0  0  0
    0.1889   -4.2011    1.0373 C   0  0  0  0  0  0  0  0  0  0  0  0
    0.6907   -3.0444    1.5141 N   0  0  0  0  0  0  0  0  0  0  0  0
    1.9917   -2.5030    1.1895 C   0  0  0  0  0  0  0  0  0  0  0  0
    2.3187   -1.2092    1.8432 C   0  0  0  0  0  0  0  0  0  0  0  0
    2.9363   -1.1816    3.0961 C   0  0  0  0  0  0  0  0  0  0  0  0
    3.2492    0.0356    3.7191 C   0  0  0  0  0  0  0  0  0  0  0  0
    2.9569    1.2711    3.1209 C   0  0  0  0  0  0  0  0  0  0  0  0
    2.3218    1.2051    1.8657 C   0  0  0  0  0  0  0  0  0  0  0  0
    1.9982    0.0000    1.2273 C   0  0  0  0  0  0  0  0  0  0  0  0
    1.3760    0.0000    0.0000 O   0  0  0  0  0  0  0  0  0  0  0  0
    0.0000    0.0000    0.0000 C   0  0  0  0  0  0  0  0  0  0  0  0
   -0.7410    0.0228   -1.1832 C   0  0  0  0  0  0  0  0  0  0  0  0
   -2.1404    0.0132   -1.1285 C   0  0  0  0  0  0  0  0  0  0  0  0
   -2.7565    0.0029    0.1215 C   0  0  0  0  0  0  0  0  0  0  0  0
   -1.9524   -0.0033    1.2469 C   0  0  0  0  0  0  0  0  0  0  0  0
   -0.6013    0.0000    1.2143 N   0  0  0  0  0  0  0  0  0  0  0  0
   -4.8286   -2.7679    4.4165 H   0  0  0  0  0  0  0  0  0  0  0  0
   -2.6498   -3.2323    5.3656 H   0  0  0  0  0  0  0  0  0  0  0  0
   -0.7705   -4.1805    3.9422 H   0  0  0  0  0  0  0  0  0  0  0  0
    0.0766   -2.4496    2.0589 H   0  0  0  0  0  0  0  0  0  0  0  0
    2.1174   -2.4377    0.1021 H   0  0  0  0  0  0  0  0  0  0  0  0
    2.7416   -3.2334    1.5192 H   0  0  0  0  0  0  0  0  0  0  0  0
    3.1801   -2.1100    3.6075 H   0  0  0  0  0  0  0  0  0  0  0  0
    3.7242   -0.0164    4.6956 H   0  0  0  0  0  0  0  0  0  0  0  0
    3.1954    2.2130    3.5967 H   0  0  0  0  0  0  0  0  0  0  0  0
    2.0696    2.1398    1.3665 H   0  0  0  0  0  0  0  0  0  0  0  0
   -0.2323    0.0482   -2.1432 H   0  0  0  0  0  0  0  0  0  0  0  0
   -2.7299    0.0248   -2.0387 H   0  0  0  0  0  0  0  0  0  0  0  0
   -3.8365    0.0026    0.2222 H   0  0  0  0  0  0  0  0  0  0  0  0
   -2.3888   -0.0091    2.2404 H   0  0  0  0  0  0  0  0  0  0  0  0
  1  2  1  0
  2  3  2  0
  3  4  1  0
  4  5  2  0
  5  6  1  0
  6  7  2  0
  7  8  1  0
  6  9  1  0
  9 10  1  0
 10 11  2  0
 11 12  1  0
 12 13  2  0
 13 14  1  0
 14 15  1  0
 15 16  1  0
 16 17  2  0
 17 18  1  0
 18 19  2  0
 19 20  1  0
 20 21  2  0
 21 22  1  0
 22 23  1  0
 23 24  2  0
 24 25  1  0
 25 26  2  0
 26 27  1  0
 27 28  2  0
  7  2  1  0
 13  9  1  0
 21 16  1  0
 28 23  1  0
  3 29  1  0
  4 30  1  0
  5 31  1  0
 14 32  1  0
 15 33  1  0
 15 34  1  0
 17 35  1  0
 18 36  1  0
 19 37  1  0
 20 38  1  0
 24 39  1  0
 25 40  1  0
 26 41  1  0
 27 42  1  0
M  END
>  <_MoleculeID>  (156) 
smi17

>  <_InputIndex>  (156) 
17

>  <_InputSMILES>  (156) 
Clc1cccc(c1Cl)-n1nnnc1NCc1ccccc1Oc1ccccn1

>  <_InputInChIKey>  (156) 
GMVNBKZQJFRFAR-UHFFFAOYSA-N

>  <_SMILES>  (156) 
Clc1cccc(-n2nnnc2NCc2ccccc2Oc2ccccn2)c1Cl

>  <_InChIKey>  (156) 
GMVNBKZQJFRFAR-UHFFFAOYSA-N

$$$$
smi17_conf1
     RDKit          3D

 42 45  0  0  0  0  0  0  0  0999 V2000
    8.9243    4.3210   -0.0468 Cl  0  0  0  0  0  0  0  0  0  0  0  0
    7.3868    4.7531   -0.6880 C   0  0  0  0  0  0  0  0  0  0  0  0
    7.0749    6.0900   -0.9478 C   0  0  0  0  0  0  0  0  0  0  0  0
    5.8244    6.4500   -1.4714 C   0  0  0  0  0  0  0  0  0  0  0  0
    4.8360    5.4944   -1.7535 C   0  0  0  0  0  0  0  0  0  0  0  0
    5.1796    4.1593   -1.4658 C   0  0  0  0  0  0  0  0  0  0  0  0
    6.4219    3.7786   -0.9402 C   0  0  0  0  0  0  0  0  0  0  0  0
    6.7683    2.1249   -0.6132 Cl  0  0  0  0  0  0  0  0  0  0  0  0
    4.2380    3.1709   -1.7165 N   0  0  0  0  0  0  0  0  0  0  0  0
    4.1877    2.5553   -2.9178 N   0  0  0  0  0  0  0  0  0  0  0  0
    3.2000    1.6749   -2.8291 N   0  0  0  0  0  0  0  0  0  0  0  0
    2.6026    1.7242   -1.5949 N   0  0  0  0  0  0  0  0  0  0  0  0
    3.2457    2.6518   -0.9242 C   0  0  0  0  0  0  0  0  0  0  0  0
    3.0023    3.0444    0.3422 N   0  0  0  0  0  0  0  0  0  0  0  0
    1.9716    2.5030    1.1997 C   0  0  0  0  0  0  0  0  0  0  0  0
    2.3054    1.2092    1.8499 C   0  0  0  0  0  0  0  0  0  0  0  0
    2.9510    1.1816    3.0887 C   0  0  0  0  0  0  0  0  0  0  0  0
    3.2686   -0.0356    3.7093 C   0  0  0  0  0  0  0  0  0  0  0  0
    2.9588   -1.2711    3.1199 C   0  0  0  0  0  0  0  0  0  0  0  0
    2.3218   -1.2051    1.8657 C   0  0  0  0  0  0  0  0  0  0  0  0
    1.9982    0.0000    1.2273 C   0  0  0  0  0  0  0  0  0  0  0  0
    1.3760    0.0000    0.0000 O   0  0  0  0  0  0  0  0  0  0  0  0
    0.0000    0.0000    0.0000 C   0  0  0  0  0  0  0  0  0  0  0  0
   -0.7410    0.0228   -1.1832 C   0  0  0  0  0  0  0  0  0  0  0  0
   -2.1404    0.0132   -1.1285 C   0  0  0  0  0  0  0  0  0  0  0  0
   -2.7565    0.0029    0.1215 C   0  0  0  0  0  0  0  0  0  0  0  0
   -1.9524   -0.0033    1.2469 C   0  0  0  0  0  0  0  0  0  0  0  0
   -0.6013    0.0000    1.2143 N   0  0  0  0  0  0  0  0  0  0  0  0
    7.8020    6.8722   -0.7425 H   0  0  0  0  0  0  0  0  0  0  0  0
    5.6468    7.5085   -1.6444 H   0  0  0  0  0  0  0  0  0  0  0  0
    3.8696    5.7661   -2.1570 H   0  0  0  0  0  0  0  0  0  0  0  0
    3.6526    3.6933    0.7711 H   0  0  0  0  0  0  0  0  0  0  0  0
    1.0201    2.4377    0.6583 H   0  0  0  0  0  0  0  0  0  0  0  0
    1.7942    3.2334    1.9995 H   0  0  0  0  0  0  0  0  0  0  0  0
    3.2194    2.1100    3.5876 H   0  0  0  0  0  0  0  0  0  0  0  0
    3.7755    0.0164    4.6697 H   0  0  0  0  0  0  0  0  0  0  0  0
    3.2016   -2.2130    3.5936 H   0  0  0  0  0  0  0  0  0  0  0  0
    2.0682   -2.1398    1.3672 H   0  0  0  0  0  0  0  0  0  0  0  0
   -0.2323    0.0482   -2.1432 H   0  0  0  0  0  0  0  0  0  0  0  0
   -2.7299    0.0248   -2.0387 H   0  0  0  0  0  0  0  0  0  0  0  0
   -3.8365    0.0026    0.2222 H   0  0  0  0  0  0  0  0  0  0  0  0
   -2.3888   -0.0091    2.2404 H   0  0  0  0  0  0  0  0  0  0  0  0
  1  2  1  0
  2  3  2  0
  3  4  1  0
  4  5  2  0
  5  6  1  0
  6  7  2  0
  7  8  1  0
  6  9  1  0
  9 10  1  0
 10 11  2  0
 11 12  1  0
 12 13  2  0
 13 14  1  0
 14 15  1  0
 15 16  1  0
 16 17  2  0
 17 18  1  0
 18 19  2  0
 19 20  1  0
 20 21  2  0
 21 22  1  0
 22 23  1  0
 23 24  2  0
 24 25  1  0
 25 26  2  0
 26 27  1  0
 27 28  2  0
  7  2  1  0
 13  9  1  0
 21 16  1  0
 28 23  1  0
  3 29  1  0
  4 30  1  0
  5 31  1  0
 14 32  1  0
 15 33  1  0
 15 34  1  0
 17 35  1  0
 18 36  1  0
 19 37  1  0
 20 38  1  0
 24 39  1  0
 25 40  1  0
 26 41  1  0
 27 42  1  0
M  END
>  <_MoleculeID>  (157) 
smi17

>  <_InputIndex>  (157) 
17

>  <_InputSMILES>  (157) 
Clc1cccc(c1Cl)-n1nnnc1NCc1ccccc1Oc1ccccn1

>  <_InputInChIKey>  (157) 
GMVNBKZQJFRFAR-UHFFFAOYSA-N

>  <_SMILES>  (157) 
Clc1cccc(-n2nnnc2NCc2ccccc2Oc2ccccn2)c1Cl

>  <_InChIKey>  (157) 
GMVNBKZQJFRFAR-UHFFFAOYSA-N

$$$$
smi17_conf2
     RDKit          3D

 42 45  0  0  0  0  0  0  0  0999 V2000
    8.5270   -3.2255    0.5234 Cl  0  0  0  0  0  0  0  0  0  0  0  0
    7.3742   -3.4724   -0.7304 C   0  0  0  0  0  0  0  0  0  0  0  0
    7.6854   -3.1551   -2.0550 C   0  0  0  0  0  0  0  0  0  0  0  0
    6.7517   -3.3544   -3.0827 C   0  0  0  0  0  0  0  0  0  0  0  0
    5.4724   -3.8740   -2.8313 C   0  0  0  0  0  0  0  0  0  0  0  0
    5.1886   -4.1686   -1.4837 C   0  0  0  0  0  0  0  0  0  0  0  0
    6.1058   -3.9745   -0.4419 C   0  0  0  0  0  0  0  0  0  0  0  0
    5.6849   -4.3574    1.1823 Cl  0  0  0  0  0  0  0  0  0  0  0  0
    3.9350   -4.6773   -1.1733 N   0  0  0  0  0  0  0  0  0  0  0  0
    3.5108   -5.8413   -1.7115 N   0  0  0  0  0  0  0  0  0  0  0  0
    2.2980   -6.0455   -1.2153 N   0  0  0  0  0  0  0  0  0  0  0  0
    1.9275   -5.0235   -0.3782 N   0  0  0  0  0  0  0  0  0  0  0  0
    2.9394   -4.1871   -0.3668 C   0  0  0  0  0  0  0  0  0  0  0  0
    3.0220   -3.0325    0.3240 N   0  0  0  0  0  0  0  0  0  0  0  0
    1.9917   -2.5030    1.1895 C   0  0  0  0  0  0  0  0  0  0  0  0
    2.3187   -1.2092    1.8432 C   0  0  0  0  0  0  0  0  0  0  0  0
    2.9363   -1.1816    3.0961 C   0  0  0  0  0  0  0  0  0  0  0  0
    3.2492    0.0356    3.7191 C   0  0  0  0  0  0  0  0  0  0  0  0
    2.9569    1.2711    3.1209 C   0  0  0  0  0  0  0  0  0  0  0  0
    2.3218    1.2051    1.8657 C   0  0  0  0  0  0  0  0  0  0  0  0
    1.9982    0.0000    1.2273 C   0  0  0  0  0  0  0  0  0  0  0  0
    1.3760    0.0000    0.0000 O   0  0  0  0  0  0  0  0  0  0  0  0
    0.0000    0.0000    0.0000 C   0  0  0  0  0  0  0  0  0  0  0  0
   -0.7410    0.0228   -1.1832 C   0  0  0  0  0  0  0  0  0  0  0  0
   -2.1404    0.0132   -1.1285 C   0  0  0  0  0  0  0  0  0  0  0  0
   -2.7565    0.0029    0.1215 C   0  0  0  0  0  0  0  0  0  0  0  0
   -1.9524   -0.0033    1.2469 C   0  0  0  0  0  0  0  0  0  0  0  0
   -0.6013    0.0000    1.2143 N   0  0  0  0  0  0  0  0  0  0  0  0
    8.6607   -2.7441   -2.3055 H   0  0  0  0  0  0  0  0  0  0  0  0
    7.0582   -3.0810   -4.0893 H   0  0  0  0  0  0  0  0  0  0  0  0
    4.7480   -4.0295   -3.6196 H   0  0  0  0  0  0  0  0  0  0  0  0
    3.9100   -2.5436    0.3267 H   0  0  0  0  0  0  0  0  0  0  0  0
    1.6926   -3.2541    1.9306 H   0  0  0  0  0  0  0  0  0  0  0  0
    1.0983   -2.3401    0.5733 H   0  0  0  0  0  0  0  0  0  0  0  0
    3.1801   -2.1100    3.6075 H   0  0  0  0  0  0  0  0  0  0  0  0
    3.7242   -0.0164    4.6956 H   0  0  0  0  0  0  0  0  0  0  0  0
    3.1954    2.2130    3.5967 H   0  0  0  0  0  0  0  0  0  0  0  0
    2.0696    2.1398    1.3665 H   0  0  0  0  0  0  0  0  0  0  0  0
   -0.2323    0.0482   -2.1432 H   0  0  0  0  0  0  0  0  0  0  0  0
   -2.7299    0.0248   -2.0387 H   0  0  0  0  0  0  0  0  0  0  0  0
   -3.8365    0.0026    0.2222 H   0  0  0  0  0  0  0  0  0  0  0  0
   -2.3888   -0.0091    2.2404 H   0  0  0  0  0  0  0  0  0  0  0  0
  1  2  1  0
  2  3  2  0
  3  4  1  0
  4  5  2  0
  5  6  1  0
  6  7  2  0
  7  8  1  0
  6  9  1  0
  9 10  1  0
 10 11  2  0
 11 12  1  0
 12 13  2  0
 13 14  1  0
 14 15  1  0
 15 16  1  0
 16 17  2  0
 17 18  1  0
 18 19  2  0
 19 20  1  0
 20 21  2  0
 21 22  1  0
 22 23  1  0
 23 24  2  0
 24 25  1  0
 25 26  2  0
 26 27  1  0
 27 28  2  0
  7  2  1  0
 13  9  1  0
 21 16  1  0
 28 23  1  0
  3 29  1  0
  4 30  1  0
  5 31  1  0
 14 32  1  0
 15 33  1  0
 15 34  1  0
 17 35  1  0
 18 36  1  0
 19 37  1  0
 20 38  1  0
 24 39  1  0
 25 40  1  0
 26 41  1  0
 27 42  1  0
M  END
>  <_MoleculeID>  (158) 
smi17

>  <_InputIndex>  (158) 
17

>  <_InputSMILES>  (158) 
Clc1cccc(c1Cl)-n1nnnc1NCc1ccccc1Oc1ccccn1

>  <_InputInChIKey>  (158) 
GMVNBKZQJFRFAR-UHFFFAOYSA-N

>  <_SMILES>  (158) 
Clc1cccc(-n2nnnc2NCc2ccccc2Oc2ccccn2)c1Cl

>  <_InChIKey>  (158) 
GMVNBKZQJFRFAR-UHFFFAOYSA-N

$$$$
smi17_conf3
     RDKit          3D

 42 45  0  0  0  0  0  0  0  0999 V2000
    0.6918    2.8844    7.7596 Cl  0  0  0  0  0  0  0  0  0  0  0  0
    0.3765    1.4174    6.9167 C   0  0  0  0  0  0  0  0  0  0  0  0
   -0.9361    1.0056    6.6727 C   0  0  0  0  0  0  0  0  0  0  0  0
   -1.2013   -0.1882    5.9855 C   0  0  0  0  0  0  0  0  0  0  0  0
   -0.1711   -1.0187    5.5177 C   0  0  0  0  0  0  0  0  0  0  0  0
    1.1382   -0.5798    5.7941 C   0  0  0  0  0  0  0  0  0  0  0  0
    1.4248    0.6077    6.4812 C   0  0  0  0  0  0  0  0  0  0  0  0
    3.0527    1.0776    6.7827 Cl  0  0  0  0  0  0  0  0  0  0  0  0
    2.1982   -1.3653    5.3629 N   0  0  0  0  0  0  0  0  0  0  0  0
    2.7059   -2.3336    6.1560 N   0  0  0  0  0  0  0  0  0  0  0  0
    3.6853   -2.8926    5.4582 N   0  0  0  0  0  0  0  0  0  0  0  0
    3.8272   -2.2895    4.2340 N   0  0  0  0  0  0  0  0  0  0  0  0
    2.9120   -1.3490    4.1916 C   0  0  0  0  0  0  0  0  0  0  0  0
    2.6788   -0.4980    3.1725 N   0  0  0  0  0  0  0  0  0  0  0  0
    3.4090   -0.4711    1.9247 C   0  0  0  0  0  0  0  0  0  0  0  0
    3.0003   -1.4977    0.9311 C   0  0  0  0  0  0  0  0  0  0  0  0
    3.6268   -2.7461    0.8999 C   0  0  0  0  0  0  0  0  0  0  0  0
    3.2459   -3.7208   -0.0343 C   0  0  0  0  0  0  0  0  0  0  0  0
    2.2299   -3.4895   -0.9744 C   0  0  0  0  0  0  0  0  0  0  0  0
    1.6309   -2.2159   -0.9231 C   0  0  0  0  0  0  0  0  0  0  0  0
    1.9982   -1.2273    0.0000 C   0  0  0  0  0  0  0  0  0  0  0  0
    1.3760    0.0000    0.0000 O   0  0  0  0  0  0  0  0  0  0  0  0
    0.0000    0.0000    0.0000 C   0  0  0  0  0  0  0  0  0  0  0  0
   -0.7410    0.0228   -1.1832 C   0  0  0  0  0  0  0  0  0  0  0  0
   -2.1404    0.0132   -1.1285 C   0  0  0  0  0  0  0  0  0  0  0  0
   -2.7565    0.0029    0.1215 C   0  0  0  0  0  0  0  0  0  0  0  0
   -1.9524   -0.0033    1.2469 C   0  0  0  0  0  0  0  0  0  0  0  0
   -0.6013    0.0000    1.2143 N   0  0  0  0  0  0  0  0  0  0  0  0
   -1.7728    1.6084    7.0181 H   0  0  0  0  0  0  0  0  0  0  0  0
   -2.2455   -0.4507    5.8349 H   0  0  0  0  0  0  0  0  0  0  0  0
   -0.3695   -1.9407    4.9875 H   0  0  0  0  0  0  0  0  0  0  0  0
    1.8643    0.1026    3.2328 H   0  0  0  0  0  0  0  0  0  0  0  0
    4.4885   -0.5133    2.1132 H   0  0  0  0  0  0  0  0  0  0  0  0
    3.2384    0.5116    1.4668 H   0  0  0  0  0  0  0  0  0  0  0  0
    4.4245   -2.9767    1.6022 H   0  0  0  0  0  0  0  0  0  0  0  0
    3.7789   -4.6679   -0.0059 H   0  0  0  0  0  0  0  0  0  0  0  0
    1.9322   -4.2371   -1.6975 H   0  0  0  0  0  0  0  0  0  0  0  0
    0.8416   -1.9890   -1.6387 H   0  0  0  0  0  0  0  0  0  0  0  0
   -0.2323    0.0482   -2.1432 H   0  0  0  0  0  0  0  0  0  0  0  0
   -2.7299    0.0248   -2.0387 H   0  0  0  0  0  0  0  0  0  0  0  0
   -3.8365    0.0026    0.2222 H   0  0  0  0  0  0  0  0  0  0  0  0
   -2.3888   -0.0091    2.2404 H   0  0  0  0  0  0  0  0  0  0  0  0
  1  2  1  0
  2  3  2  0
  3  4  1  0
  4  5  2  0
  5  6  1  0
  6  7  2  0
  7  8  1  0
  6  9  1  0
  9 10  1  0
 10 11  2  0
 11 12  1  0
 12 13  2  0
 13 14  1  0
 14 15  1  0
 15 16  1  0
 16 17  2  0
 17 18  1  0
 18 19  2  0
 19 20  1  0
 20 21  2  0
 21 22  1  0
 22 23  1  0
 23 24  2  0
 24 25  1  0
 25 26  2  0
 26 27  1  0
 27 28  2  0
  7  2  1  0
 13  9  1  0
 21 16  1  0
 28 23  1  0
  3 29  1  0
  4 30  1  0
  5 31  1  0
 14 32  1  0
 15 33  1  0
 15 34  1  0
 17 35  1  0
 18 36  1  0
 19 37  1  0
 20 38  1  0
 24 39  1  0
 25 40  1  0
 26 41  1  0
 27 42  1  0
M  END
>  <_MoleculeID>  (159) 
smi17

>  <_InputIndex>  (159) 
17

>  <_InputSMILES>  (159) 
Clc1cccc(c1Cl)-n1nnnc1NCc1ccccc1Oc1ccccn1

>  <_InputInChIKey>  (159) 
GMVNBKZQJFRFAR-UHFFFAOYSA-N

>  <_SMILES>  (159) 
Clc1cccc(-n2nnnc2NCc2ccccc2Oc2ccccn2)c1Cl

>  <_InChIKey>  (159) 
GMVNBKZQJFRFAR-UHFFFAOYSA-N

$$$$
smi17_conf4
     RDKit          3D

 42 45  0  0  0  0  0  0  0  0999 V2000
   -2.5992    0.0980    7.0326 Cl  0  0  0  0  0  0  0  0  0  0  0  0
   -1.0786    0.7713    6.5897 C   0  0  0  0  0  0  0  0  0  0  0  0
   -0.8696    2.1517    6.6425 C   0  0  0  0  0  0  0  0  0  0  0  0
    0.3672    2.7080    6.2841 C   0  0  0  0  0  0  0  0  0  0  0  0
    1.4418    1.9127    5.8569 C   0  0  0  0  0  0  0  0  0  0  0  0
    1.1908    0.5280    5.8021 C   0  0  0  0  0  0  0  0  0  0  0  0
   -0.0380   -0.0477    6.1530 C   0  0  0  0  0  0  0  0  0  0  0  0
   -0.2695   -1.7505    6.0587 Cl  0  0  0  0  0  0  0  0  0  0  0  0
    2.2144   -0.3080    5.3784 N   0  0  0  0  0  0  0  0  0  0  0  0
    2.6916   -1.2785    6.1877 N   0  0  0  0  0  0  0  0  0  0  0  0
    3.6409   -1.8909    5.4931 N   0  0  0  0  0  0  0  0  0  0  0  0
    3.7940   -1.3203    4.2548 N   0  0  0  0  0  0  0  0  0  0  0  0
    2.9164   -0.3454    4.2003 C   0  0  0  0  0  0  0  0  0  0  0  0
    2.7065    0.4922    3.1651 N   0  0  0  0  0  0  0  0  0  0  0  0
    3.4244    0.4632    1.9102 C   0  0  0  0  0  0  0  0  0  0  0  0
    3.0105    1.4925    0.9215 C   0  0  0  0  0  0  0  0  0  0  0  0
    3.6155    2.7518    0.9105 C   0  0  0  0  0  0  0  0  0  0  0  0
    3.2310    3.7283   -0.0203 C   0  0  0  0  0  0  0  0  0  0  0  0
    2.2284    3.4902   -0.9730 C   0  0  0  0  0  0  0  0  0  0  0  0
    1.6309    2.2159   -0.9231 C   0  0  0  0  0  0  0  0  0  0  0  0
    1.9982    1.2273   -0.0000 C   0  0  0  0  0  0  0  0  0  0  0  0
    1.3760    0.0000   -0.0000 O   0  0  0  0  0  0  0  0  0  0  0  0
    0.0000    0.0000    0.0000 C   0  0  0  0  0  0  0  0  0  0  0  0
   -0.7410    0.0228   -1.1832 C   0  0  0  0  0  0  0  0  0  0  0  0
   -2.1404    0.0132   -1.1285 C   0  0  0  0  0  0  0  0  0  0  0  0
   -2.7565    0.0029    0.1215 C   0  0  0  0  0  0  0  0  0  0  0  0
   -1.9524   -0.0033    1.2469 C   0  0  0  0  0  0  0  0  0  0  0  0
   -0.6013    0.0000    1.2143 N   0  0  0  0  0  0  0  0  0  0  0  0
   -1.6701    2.8154    6.9612 H   0  0  0  0  0  0  0  0  0  0  0  0
    0.4589    3.7897    6.3437 H   0  0  0  0  0  0  0  0  0  0  0  0
    2.3978    2.3360    5.5788 H   0  0  0  0  0  0  0  0  0  0  0  0
    1.9171    1.1259    3.2199 H   0  0  0  0  0  0  0  0  0  0  0  0
    3.3866   -0.5414    1.4720 H   0  0  0  0  0  0  0  0  0  0  0  0
    4.4845    0.6356    2.1355 H   0  0  0  0  0  0  0  0  0  0  0  0
    4.3944    2.9919    1.6305 H   0  0  0  0  0  0  0  0  0  0  0  0
    3.7396    4.6878    0.0310 H   0  0  0  0  0  0  0  0  0  0  0  0
    1.9274    4.2395   -1.6930 H   0  0  0  0  0  0  0  0  0  0  0  0
    0.8426    1.9884   -1.6397 H   0  0  0  0  0  0  0  0  0  0  0  0
   -0.2323    0.0482   -2.1432 H   0  0  0  0  0  0  0  0  0  0  0  0
   -2.7299    0.0248   -2.0387 H   0  0  0  0  0  0  0  0  0  0  0  0
   -3.8365    0.0026    0.2222 H   0  0  0  0  0  0  0  0  0  0  0  0
   -2.3888   -0.0091    2.2404 H   0  0  0  0  0  0  0  0  0  0  0  0
  1  2  1  0
  2  3  2  0
  3  4  1  0
  4  5  2  0
  5  6  1  0
  6  7  2  0
  7  8  1  0
  6  9  1  0
  9 10  1  0
 10 11  2  0
 11 12  1  0
 12 13  2  0
 13 14  1  0
 14 15  1  0
 15 16  1  0
 16 17  2  0
 17 18  1  0
 18 19  2  0
 19 20  1  0
 20 21  2  0
 21 22  1  0
 22 23  1  0
 23 24  2  0
 24 25  1  0
 25 26  2  0
 26 27  1  0
 27 28  2  0
  7  2  1  0
 13  9  1  0
 21 16  1  0
 28 23  1  0
  3 29  1  0
  4 30  1  0
  5 31  1  0
 14 32  1  0
 15 33  1  0
 15 34  1  0
 17 35  1  0
 18 36  1  0
 19 37  1  0
 20 38  1  0
 24 39  1  0
 25 40  1  0
 26 41  1  0
 27 42  1  0
M  END
>  <_MoleculeID>  (160) 
smi17

>  <_InputIndex>  (160) 
17

>  <_InputSMILES>  (160) 
Clc1cccc(c1Cl)-n1nnnc1NCc1ccccc1Oc1ccccn1

>  <_InputInChIKey>  (160) 
GMVNBKZQJFRFAR-UHFFFAOYSA-N

>  <_SMILES>  (160) 
Clc1cccc(-n2nnnc2NCc2ccccc2Oc2ccccn2)c1Cl

>  <_InChIKey>  (160) 
GMVNBKZQJFRFAR-UHFFFAOYSA-N

$$$$
smi17_conf5
     RDKit          3D

 42 45  0  0  0  0  0  0  0  0999 V2000
    2.3013    1.8698    6.7792 Cl  0  0  0  0  0  0  0  0  0  0  0  0
    3.5997    2.2127    5.7030 C   0  0  0  0  0  0  0  0  0  0  0  0
    4.0697    3.5194    5.5492 C   0  0  0  0  0  0  0  0  0  0  0  0
    5.1282    3.8068    4.6748 C   0  0  0  0  0  0  0  0  0  0  0  0
    5.7571    2.8059    3.9182 C   0  0  0  0  0  0  0  0  0  0  0  0
    5.2481    1.5038    4.0877 C   0  0  0  0  0  0  0  0  0  0  0  0
    4.1900    1.1957    4.9537 C   0  0  0  0  0  0  0  0  0  0  0  0
    3.6216   -0.4215    5.1062 Cl  0  0  0  0  0  0  0  0  0  0  0  0
    5.8255    0.4736    3.3583 N   0  0  0  0  0  0  0  0  0  0  0  0
    6.8704   -0.2225    3.8566 N   0  0  0  0  0  0  0  0  0  0  0  0
    7.1752   -1.1235    2.9326 N   0  0  0  0  0  0  0  0  0  0  0  0
    6.3534   -1.0088    1.8398 N   0  0  0  0  0  0  0  0  0  0  0  0
    5.5338   -0.0199    2.1120 C   0  0  0  0  0  0  0  0  0  0  0  0
    4.5480    0.4496    1.3216 N   0  0  0  0  0  0  0  0  0  0  0  0
    4.2142   -0.0629    0.0113 C   0  0  0  0  0  0  0  0  0  0  0  0
    3.3906   -1.2998    0.0075 C   0  0  0  0  0  0  0  0  0  0  0  0
    3.9976   -2.5581   -0.0082 C   0  0  0  0  0  0  0  0  0  0  0  0
    3.2271   -3.7303   -0.0109 C   0  0  0  0  0  0  0  0  0  0  0  0
    1.8242   -3.6951   -0.0011 C   0  0  0  0  0  0  0  0  0  0  0  0
    1.2470   -2.4106    0.0000 C   0  0  0  0  0  0  0  0  0  0  0  0
    1.9982   -1.2273    0.0000 C   0  0  0  0  0  0  0  0  0  0  0  0
    1.3760    0.0000    0.0000 O   0  0  0  0  0  0  0  0  0  0  0  0
    0.0000    0.0000    0.0000 C   0  0  0  0  0  0  0  0  0  0  0  0
   -0.7410    0.0228   -1.1832 C   0  0  0  0  0  0  0  0  0  0  0  0
   -2.1404    0.0132   -1.1285 C   0  0  0  0  0  0  0  0  0  0  0  0
   -2.7565    0.0029    0.1215 C   0  0  0  0  0  0  0  0  0  0  0  0
   -1.9524   -0.0033    1.2469 C   0  0  0  0  0  0  0  0  0  0  0  0
   -0.6013    0.0000    1.2143 N   0  0  0  0  0  0  0  0  0  0  0  0
    3.6147    4.3346    6.1071 H   0  0  0  0  0  0  0  0  0  0  0  0
    5.4398    4.8456    4.6000 H   0  0  0  0  0  0  0  0  0  0  0  0
    6.5736    3.0215    3.2420 H   0  0  0  0  0  0  0  0  0  0  0  0
    3.9196    1.1446    1.7088 H   0  0  0  0  0  0  0  0  0  0  0  0
    5.1218   -0.1922   -0.5905 H   0  0  0  0  0  0  0  0  0  0  0  0
    3.6376    0.7140   -0.5069 H   0  0  0  0  0  0  0  0  0  0  0  0
    5.0817   -2.6435   -0.0220 H   0  0  0  0  0  0  0  0  0  0  0  0
    3.7644   -4.6753   -0.0287 H   0  0  0  0  0  0  0  0  0  0  0  0
    1.2247   -4.5958   -0.0035 H   0  0  0  0  0  0  0  0  0  0  0  0
    0.1604   -2.3343    0.0008 H   0  0  0  0  0  0  0  0  0  0  0  0
   -0.2323    0.0482   -2.1432 H   0  0  0  0  0  0  0  0  0  0  0  0
   -2.7299    0.0248   -2.0387 H   0  0  0  0  0  0  0  0  0  0  0  0
   -3.8365    0.0026    0.2222 H   0  0  0  0  0  0  0  0  0  0  0  0
   -2.3888   -0.0091    2.2404 H   0  0  0  0  0  0  0  0  0  0  0  0
  1  2  1  0
  2  3  2  0
  3  4  1  0
  4  5  2  0
  5  6  1  0
  6  7  2  0
  7  8  1  0
  6  9  1  0
  9 10  1  0
 10 11  2  0
 11 12  1  0
 12 13  2  0
 13 14  1  0
 14 15  1  0
 15 16  1  0
 16 17  2  0
 17 18  1  0
 18 19  2  0
 19 20  1  0
 20 21  2  0
 21 22  1  0
 22 23  1  0
 23 24  2  0
 24 25  1  0
 25 26  2  0
 26 27  1  0
 27 28  2  0
  7  2  1  0
 13  9  1  0
 21 16  1  0
 28 23  1  0
  3 29  1  0
  4 30  1  0
  5 31  1  0
 14 32  1  0
 15 33  1  0
 15 34  1  0
 17 35  1  0
 18 36  1  0
 19 37  1  0
 20 38  1  0
 24 39  1  0
 25 40  1  0
 26 41  1  0
 27 42  1  0
M  END
>  <_MoleculeID>  (161) 
smi17

>  <_InputIndex>  (161) 
17

>  <_InputSMILES>  (161) 
Clc1cccc(c1Cl)-n1nnnc1NCc1ccccc1Oc1ccccn1

>  <_InputInChIKey>  (161) 
GMVNBKZQJFRFAR-UHFFFAOYSA-N

>  <_SMILES>  (161) 
Clc1cccc(-n2nnnc2NCc2ccccc2Oc2ccccn2)c1Cl

>  <_InChIKey>  (161) 
GMVNBKZQJFRFAR-UHFFFAOYSA-N

$$$$
smi17_conf6
     RDKit          3D

 42 45  0  0  0  0  0  0  0  0999 V2000
   -2.8378    5.6191    0.6000 Cl  0  0  0  0  0  0  0  0  0  0  0  0
   -1.2004    5.9414    1.0206 C   0  0  0  0  0  0  0  0  0  0  0  0
   -0.8906    6.6302    2.1959 C   0  0  0  0  0  0  0  0  0  0  0  0
    0.4415    6.8958    2.5461 C   0  0  0  0  0  0  0  0  0  0  0  0
    1.5153    6.4890    1.7392 C   0  0  0  0  0  0  0  0  0  0  0  0
    1.1652    5.8104    0.5559 C   0  0  0  0  0  0  0  0  0  0  0  0
   -0.1589    5.5374    0.1862 C   0  0  0  0  0  0  0  0  0  0  0  0
   -0.5083    4.7034   -1.2781 Cl  0  0  0  0  0  0  0  0  0  0  0  0
    2.1856    5.3912   -0.2864 N   0  0  0  0  0  0  0  0  0  0  0  0
    2.6415    6.1961   -1.2708 N   0  0  0  0  0  0  0  0  0  0  0  0
    3.6031    5.5130   -1.8769 N   0  0  0  0  0  0  0  0  0  0  0  0
    3.7634    4.2743   -1.3089 N   0  0  0  0  0  0  0  0  0  0  0  0
    2.8821    4.2105   -0.3378 C   0  0  0  0  0  0  0  0  0  0  0  0
    2.6788    3.1725    0.4980 N   0  0  0  0  0  0  0  0  0  0  0  0
    3.4090    1.9247    0.4711 C   0  0  0  0  0  0  0  0  0  0  0  0
    3.0003    0.9311    1.4977 C   0  0  0  0  0  0  0  0  0  0  0  0
    3.6268    0.8999    2.7461 C   0  0  0  0  0  0  0  0  0  0  0  0
    3.2459   -0.0343    3.7208 C   0  0  0  0  0  0  0  0  0  0  0  0
    2.2299   -0.9744    3.4895 C   0  0  0  0  0  0  0  0  0  0  0  0
    1.6309   -0.9231    2.2159 C   0  0  0  0  0  0  0  0  0  0  0  0
    1.9982    0.0000    1.2273 C   0  0  0  0  0  0  0  0  0  0  0  0
    1.3760    0.0000    0.0000 O   0  0  0  0  0  0  0  0  0  0  0  0
    0.0000    0.0000    0.0000 C   0  0  0  0  0  0  0  0  0  0  0  0
   -0.7410    0.0228   -1.1832 C   0  0  0  0  0  0  0  0  0  0  0  0
   -2.1404    0.0132   -1.1285 C   0  0  0  0  0  0  0  0  0  0  0  0
   -2.7565    0.0029    0.1215 C   0  0  0  0  0  0  0  0  0  0  0  0
   -1.9524   -0.0033    1.2469 C   0  0  0  0  0  0  0  0  0  0  0  0
   -0.6013    0.0000    1.2143 N   0  0  0  0  0  0  0  0  0  0  0  0
   -1.6843    6.9736    2.8554 H   0  0  0  0  0  0  0  0  0  0  0  0
    0.6103    7.4408    3.4716 H   0  0  0  0  0  0  0  0  0  0  0  0
    2.5446    6.6913    2.0039 H   0  0  0  0  0  0  0  0  0  0  0  0
    2.0408    3.3064    1.2743 H   0  0  0  0  0  0  0  0  0  0  0  0
    4.4885    2.1132    0.5133 H   0  0  0  0  0  0  0  0  0  0  0  0
    3.2384    1.4668   -0.5116 H   0  0  0  0  0  0  0  0  0  0  0  0
    4.4245    1.6022    2.9767 H   0  0  0  0  0  0  0  0  0  0  0  0
    3.7789   -0.0059    4.6679 H   0  0  0  0  0  0  0  0  0  0  0  0
    1.9322   -1.6975    4.2371 H   0  0  0  0  0  0  0  0  0  0  0  0
    0.8416   -1.6387    1.9890 H   0  0  0  0  0  0  0  0  0  0  0  0
   -0.2323    0.0482   -2.1432 H   0  0  0  0  0  0  0  0  0  0  0  0
   -2.7299    0.0248   -2.0387 H   0  0  0  0  0  0  0  0  0  0  0  0
   -3.8365    0.0026    0.2222 H   0  0  0  0  0  0  0  0  0  0  0  0
   -2.3888   -0.0091    2.2404 H   0  0  0  0  0  0  0  0  0  0  0  0
  1  2  1  0
  2  3  2  0
  3  4  1  0
  4  5  2  0
  5  6  1  0
  6  7  2  0
  7  8  1  0
  6  9  1  0
  9 10  1  0
 10 11  2  0
 11 12  1  0
 12 13  2  0
 13 14  1  0
 14 15  1  0
 15 16  1  0
 16 17  2  0
 17 18  1  0
 18 19  2  0
 19 20  1  0
 20 21  2  0
 21 22  1  0
 22 23  1  0
 23 24  2  0
 24 25  1  0
 25 26  2  0
 26 27  1  0
 27 28  2  0
  7  2  1  0
 13  9  1  0
 21 16  1  0
 28 23  1  0
  3 29  1  0
  4 30  1  0
  5 31  1  0
 14 32  1  0
 15 33  1  0
 15 34  1  0
 17 35  1  0
 18 36  1  0
 19 37  1  0
 20 38  1  0
 24 39  1  0
 25 40  1  0
 26 41  1  0
 27 42  1  0
M  END
>  <_MoleculeID>  (162) 
smi17

>  <_InputIndex>  (162) 
17

>  <_InputSMILES>  (162) 
Clc1cccc(c1Cl)-n1nnnc1NCc1ccccc1Oc1ccccn1

>  <_InputInChIKey>  (162) 
GMVNBKZQJFRFAR-UHFFFAOYSA-N

>  <_SMILES>  (162) 
Clc1cccc(-n2nnnc2NCc2ccccc2Oc2ccccn2)c1Cl

>  <_InChIKey>  (162) 
GMVNBKZQJFRFAR-UHFFFAOYSA-N

$$$$
smi17_conf7
     RDKit          3D

 42 45  0  0  0  0  0  0  0  0999 V2000
    5.7726   -5.4600   -4.4562 Cl  0  0  0  0  0  0  0  0  0  0  0  0
    5.1822   -3.8537   -4.6379 C   0  0  0  0  0  0  0  0  0  0  0  0
    4.1353   -3.5765   -5.5206 C   0  0  0  0  0  0  0  0  0  0  0  0
    3.6479   -2.2701   -5.6735 C   0  0  0  0  0  0  0  0  0  0  0  0
    4.1853   -1.1898   -4.9567 C   0  0  0  0  0  0  0  0  0  0  0  0
    5.2481   -1.5038   -4.0877 C   0  0  0  0  0  0  0  0  0  0  0  0
    5.7517   -2.8012   -3.9222 C   0  0  0  0  0  0  0  0  0  0  0  0
    7.0554   -3.1067   -2.8409 Cl  0  0  0  0  0  0  0  0  0  0  0  0
    5.8255   -0.4736   -3.3583 N   0  0  0  0  0  0  0  0  0  0  0  0
    6.8704    0.2225   -3.8566 N   0  0  0  0  0  0  0  0  0  0  0  0
    7.1752    1.1235   -2.9326 N   0  0  0  0  0  0  0  0  0  0  0  0
    6.3534    1.0088   -1.8398 N   0  0  0  0  0  0  0  0  0  0  0  0
    5.5338    0.0199   -2.1120 C   0  0  0  0  0  0  0  0  0  0  0  0
    4.5480   -0.4496   -1.3216 N   0  0  0  0  0  0  0  0  0  0  0  0
    4.2142    0.0629   -0.0113 C   0  0  0  0  0  0  0  0  0  0  0  0
    3.3906    1.2998   -0.0075 C   0  0  0  0  0  0  0  0  0  0  0  0
    3.9976    2.5581    0.0082 C   0  0  0  0  0  0  0  0  0  0  0  0
    3.2271    3.7303    0.0109 C   0  0  0  0  0  0  0  0  0  0  0  0
    1.8242    3.6951    0.0011 C   0  0  0  0  0  0  0  0  0  0  0  0
    1.2470    2.4106   -0.0000 C   0  0  0  0  0  0  0  0  0  0  0  0
    1.9982    1.2273   -0.0000 C   0  0  0  0  0  0  0  0  0  0  0  0
    1.3760    0.0000   -0.0000 O   0  0  0  0  0  0  0  0  0  0  0  0
    0.0000    0.0000    0.0000 C   0  0  0  0  0  0  0  0  0  0  0  0
   -0.7410    0.0228   -1.1832 C   0  0  0  0  0  0  0  0  0  0  0  0
   -2.1404    0.0132   -1.1285 C   0  0  0  0  0  0  0  0  0  0  0  0
   -2.7565    0.0029    0.1215 C   0  0  0  0  0  0  0  0  0  0  0  0
   -1.9524   -0.0033    1.2469 C   0  0  0  0  0  0  0  0  0  0  0  0
   -0.6013    0.0000    1.2143 N   0  0  0  0  0  0  0  0  0  0  0  0
    3.6855   -4.3755   -6.1055 H   0  0  0  0  0  0  0  0  0  0  0  0
    2.8354   -2.1250   -6.3811 H   0  0  0  0  0  0  0  0  0  0  0  0
    3.8139   -0.1801   -5.0708 H   0  0  0  0  0  0  0  0  0  0  0  0
    3.9196   -1.1446   -1.7088 H   0  0  0  0  0  0  0  0  0  0  0  0
    5.1218    0.1922    0.5905 H   0  0  0  0  0  0  0  0  0  0  0  0
    3.6376   -0.7140    0.5069 H   0  0  0  0  0  0  0  0  0  0  0  0
    5.0817    2.6435    0.0220 H   0  0  0  0  0  0  0  0  0  0  0  0
    3.7644    4.6753    0.0287 H   0  0  0  0  0  0  0  0  0  0  0  0
    1.2247    4.5958    0.0035 H   0  0  0  0  0  0  0  0  0  0  0  0
    0.1604    2.3343   -0.0008 H   0  0  0  0  0  0  0  0  0  0  0  0
   -0.2323    0.0482   -2.1432 H   0  0  0  0  0  0  0  0  0  0  0  0
   -2.7299    0.0248   -2.0387 H   0  0  0  0  0  0  0  0  0  0  0  0
   -3.8365    0.0026    0.2222 H   0  0  0  0  0  0  0  0  0  0  0  0
   -2.3888   -0.0091    2.2404 H   0  0  0  0  0  0  0  0  0  0  0  0
  1  2  1  0
  2  3  2  0
  3  4  1  0
  4  5  2  0
  5  6  1  0
  6  7  2  0
  7  8  1  0
  6  9  1  0
  9 10  1  0
 10 11  2  0
 11 12  1  0
 12 13  2  0
 13 14  1  0
 14 15  1  0
 15 16  1  0
 16 17  2  0
 17 18  1  0
 18 19  2  0
 19 20  1  0
 20 21  2  0
 21 22  1  0
 22 23  1  0
 23 24  2  0
 24 25  1  0
 25 26  2  0
 26 27  1  0
 27 28  2  0
  7  2  1  0
 13  9  1  0
 21 16  1  0
 28 23  1  0
  3 29  1  0
  4 30  1  0
  5 31  1  0
 14 32  1  0
 15 33  1  0
 15 34  1  0
 17 35  1  0
 18 36  1  0
 19 37  1  0
 20 38  1  0
 24 39  1  0
 25 40  1  0
 26 41  1  0
 27 42  1  0
M  END
>  <_MoleculeID>  (163) 
smi17

>  <_InputIndex>  (163) 
17

>  <_InputSMILES>  (163) 
Clc1cccc(c1Cl)-n1nnnc1NCc1ccccc1Oc1ccccn1

>  <_InputInChIKey>  (163) 
GMVNBKZQJFRFAR-UHFFFAOYSA-N

>  <_SMILES>  (163) 
Clc1cccc(-n2nnnc2NCc2ccccc2Oc2ccccn2)c1Cl

>  <_InChIKey>  (163) 
GMVNBKZQJFRFAR-UHFFFAOYSA-N

$$$$
smi17_conf8
     RDKit          3D

 42 45  0  0  0  0  0  0  0  0999 V2000
    0.8869    7.7605    4.0462 Cl  0  0  0  0  0  0  0  0  0  0  0  0
    0.5010    6.9241    2.5925 C   0  0  0  0  0  0  0  0  0  0  0  0
   -0.8287    6.6542    2.2590 C   0  0  0  0  0  0  0  0  0  0  0  0
   -1.1513    5.9739    1.0754 C   0  0  0  0  0  0  0  0  0  0  0  0
   -0.1637    5.5339    0.1806 C   0  0  0  0  0  0  0  0  0  0  0  0
    1.1652    5.8104    0.5559 C   0  0  0  0  0  0  0  0  0  0  0  0
    1.5092    6.4860    1.7347 C   0  0  0  0  0  0  0  0  0  0  0  0
    3.1579    6.7862    2.1264 Cl  0  0  0  0  0  0  0  0  0  0  0  0
    2.1856    5.3912   -0.2864 N   0  0  0  0  0  0  0  0  0  0  0  0
    2.6415    6.1961   -1.2708 N   0  0  0  0  0  0  0  0  0  0  0  0
    3.6031    5.5130   -1.8769 N   0  0  0  0  0  0  0  0  0  0  0  0
    3.7634    4.2743   -1.3089 N   0  0  0  0  0  0  0  0  0  0  0  0
    2.8821    4.2105   -0.3378 C   0  0  0  0  0  0  0  0  0  0  0  0
    2.6788    3.1725    0.4980 N   0  0  0  0  0  0  0  0  0  0  0  0
    3.4090    1.9247    0.4711 C   0  0  0  0  0  0  0  0  0  0  0  0
    3.0003    0.9311    1.4977 C   0  0  0  0  0  0  0  0  0  0  0  0
    3.6268    0.8999    2.7461 C   0  0  0  0  0  0  0  0  0  0  0  0
    3.2459   -0.0343    3.7208 C   0  0  0  0  0  0  0  0  0  0  0  0
    2.2299   -0.9744    3.4895 C   0  0  0  0  0  0  0  0  0  0  0  0
    1.6309   -0.9231    2.2159 C   0  0  0  0  0  0  0  0  0  0  0  0
    1.9982    0.0000    1.2273 C   0  0  0  0  0  0  0  0  0  0  0  0
    1.3760    0.0000    0.0000 O   0  0  0  0  0  0  0  0  0  0  0  0
    0.0000    0.0000    0.0000 C   0  0  0  0  0  0  0  0  0  0  0  0
   -0.7410    0.0228   -1.1832 C   0  0  0  0  0  0  0  0  0  0  0  0
   -2.1404    0.0132   -1.1285 C   0  0  0  0  0  0  0  0  0  0  0  0
   -2.7565    0.0029    0.1215 C   0  0  0  0  0  0  0  0  0  0  0  0
   -1.9524   -0.0033    1.2469 C   0  0  0  0  0  0  0  0  0  0  0  0
   -0.6013    0.0000    1.2143 N   0  0  0  0  0  0  0  0  0  0  0  0
   -1.6338    6.9677    2.9194 H   0  0  0  0  0  0  0  0  0  0  0  0
   -2.2055    5.7927    0.8808 H   0  0  0  0  0  0  0  0  0  0  0  0
   -0.4065    5.0084   -0.7334 H   0  0  0  0  0  0  0  0  0  0  0  0
    2.0408    3.3064    1.2743 H   0  0  0  0  0  0  0  0  0  0  0  0
    4.4885    2.1132    0.5133 H   0  0  0  0  0  0  0  0  0  0  0  0
    3.2384    1.4668   -0.5116 H   0  0  0  0  0  0  0  0  0  0  0  0
    4.4245    1.6022    2.9767 H   0  0  0  0  0  0  0  0  0  0  0  0
    3.7789   -0.0059    4.6679 H   0  0  0  0  0  0  0  0  0  0  0  0
    1.9322   -1.6975    4.2371 H   0  0  0  0  0  0  0  0  0  0  0  0
    0.8416   -1.6387    1.9890 H   0  0  0  0  0  0  0  0  0  0  0  0
   -0.2323    0.0482   -2.1432 H   0  0  0  0  0  0  0  0  0  0  0  0
   -2.7299    0.0248   -2.0387 H   0  0  0  0  0  0  0  0  0  0  0  0
   -3.8365    0.0026    0.2222 H   0  0  0  0  0  0  0  0  0  0  0  0
   -2.3888   -0.0091    2.2404 H   0  0  0  0  0  0  0  0  0  0  0  0
  1  2  1  0
  2  3  2  0
  3  4  1  0
  4  5  2  0
  5  6  1  0
  6  7  2  0
  7  8  1  0
  6  9  1  0
  9 10  1  0
 10 11  2  0
 11 12  1  0
 12 13  2  0
 13 14  1  0
 14 15  1  0
 15 16  1  0
 16 17  2  0
 17 18  1  0
 18 19  2  0
 19 20  1  0
 20 21  2  0
 21 22  1  0
 22 23  1  0
 23 24  2  0
 24 25  1  0
 25 26  2  0
 26 27  1  0
 27 28  2  0
  7  2  1  0
 13  9  1  0
 21 16  1  0
 28 23  1  0
  3 29  1  0
  4 30  1  0
  5 31  1  0
 14 32  1  0
 15 33  1  0
 15 34  1  0
 17 35  1  0
 18 36  1  0
 19 37  1  0
 20 38  1  0
 24 39  1  0
 25 40  1  0
 26 41  1  0
 27 42  1  0
M  END
>  <_MoleculeID>  (164) 
smi17

>  <_InputIndex>  (164) 
17

>  <_InputSMILES>  (164) 
Clc1cccc(c1Cl)-n1nnnc1NCc1ccccc1Oc1ccccn1

>  <_InputInChIKey>  (164) 
GMVNBKZQJFRFAR-UHFFFAOYSA-N

>  <_SMILES>  (164) 
Clc1cccc(-n2nnnc2NCc2ccccc2Oc2ccccn2)c1Cl

>  <_InChIKey>  (164) 
GMVNBKZQJFRFAR-UHFFFAOYSA-N

$$$$
smi17_conf9
     RDKit          3D

 42 45  0  0  0  0  0  0  0  0999 V2000
    5.3858   -8.1449    1.8334 Cl  0  0  0  0  0  0  0  0  0  0  0  0
    5.7684   -6.5006    1.4995 C   0  0  0  0  0  0  0  0  0  0  0  0
    7.0213   -6.1515    0.9893 C   0  0  0  0  0  0  0  0  0  0  0  0
    7.3404   -4.8137    0.7136 C   0  0  0  0  0  0  0  0  0  0  0  0
    6.4265   -3.7724    0.9378 C   0  0  0  0  0  0  0  0  0  0  0  0
    5.1796   -4.1593    1.4658 C   0  0  0  0  0  0  0  0  0  0  0  0
    4.8418   -5.4894    1.7508 C   0  0  0  0  0  0  0  0  0  0  0  0
    3.2964   -5.8845    2.3969 Cl  0  0  0  0  0  0  0  0  0  0  0  0
    4.2380   -3.1709    1.7165 N   0  0  0  0  0  0  0  0  0  0  0  0
    4.1877   -2.5553    2.9178 N   0  0  0  0  0  0  0  0  0  0  0  0
    3.2000   -1.6749    2.8291 N   0  0  0  0  0  0  0  0  0  0  0  0
    2.6026   -1.7242    1.5949 N   0  0  0  0  0  0  0  0  0  0  0  0
    3.2457   -2.6518    0.9242 C   0  0  0  0  0  0  0  0  0  0  0  0
    3.0023   -3.0444   -0.3422 N   0  0  0  0  0  0  0  0  0  0  0  0
    1.9716   -2.5030   -1.1997 C   0  0  0  0  0  0  0  0  0  0  0  0
    2.3054   -1.2092   -1.8499 C   0  0  0  0  0  0  0  0  0  0  0  0
    2.9510   -1.1816   -3.0887 C   0  0  0  0  0  0  0  0  0  0  0  0
    3.2686    0.0356   -3.7093 C   0  0  0  0  0  0  0  0  0  0  0  0
    2.9588    1.2711   -3.1199 C   0  0  0  0  0  0  0  0  0  0  0  0
    2.3218    1.2051   -1.8657 C   0  0  0  0  0  0  0  0  0  0  0  0
    1.9982   -0.0000   -1.2273 C   0  0  0  0  0  0  0  0  0  0  0  0
    1.3760   -0.0000    0.0000 O   0  0  0  0  0  0  0  0  0  0  0  0
    0.0000    0.0000    0.0000 C   0  0  0  0  0  0  0  0  0  0  0  0
   -0.7410    0.0228   -1.1832 C   0  0  0  0  0  0  0  0  0  0  0  0
   -2.1404    0.0132   -1.1285 C   0  0  0  0  0  0  0  0  0  0  0  0
   -2.7565    0.0029    0.1215 C   0  0  0  0  0  0  0  0  0  0  0  0
   -1.9524   -0.0033    1.2469 C   0  0  0  0  0  0  0  0  0  0  0  0
   -0.6013    0.0000    1.2143 N   0  0  0  0  0  0  0  0  0  0  0  0
    7.7697   -6.9181    0.8019 H   0  0  0  0  0  0  0  0  0  0  0  0
    8.3349   -4.6128    0.3232 H   0  0  0  0  0  0  0  0  0  0  0  0
    6.6671   -2.7388    0.7275 H   0  0  0  0  0  0  0  0  0  0  0  0
    3.6526   -3.6933   -0.7711 H   0  0  0  0  0  0  0  0  0  0  0  0
    1.0201   -2.4377   -0.6583 H   0  0  0  0  0  0  0  0  0  0  0  0
    1.7942   -3.2334   -1.9995 H   0  0  0  0  0  0  0  0  0  0  0  0
    3.2194   -2.1100   -3.5876 H   0  0  0  0  0  0  0  0  0  0  0  0
    3.7755   -0.0164   -4.6697 H   0  0  0  0  0  0  0  0  0  0  0  0
    3.2016    2.2130   -3.5936 H   0  0  0  0  0  0  0  0  0  0  0  0
    2.0682    2.1398   -1.3672 H   0  0  0  0  0  0  0  0  0  0  0  0
   -0.2323    0.0482   -2.1432 H   0  0  0  0  0  0  0  0  0  0  0  0
   -2.7299    0.0248   -2.0387 H   0  0  0  0  0  0  0  0  0  0  0  0
   -3.8365    0.0026    0.2222 H   0  0  0  0  0  0  0  0  0  0  0  0
   -2.3888   -0.0091    2.2404 H   0  0  0  0  0  0  0  0  0  0  0  0
  1  2  1  0
  2  3  2  0
  3  4  1  0
  4  5  2  0
  5  6  1  0
  6  7  2  0
  7  8  1  0
  6  9  1  0
  9 10  1  0
 10 11  2  0
 11 12  1  0
 12 13  2  0
 13 14  1  0
 14 15  1  0
 15 16  1  0
 16 17  2  0
 17 18  1  0
 18 19  2  0
 19 20  1  0
 20 21  2  0
 21 22  1  0
 22 23  1  0
 23 24  2  0
 24 25  1  0
 25 26  2  0
 26 27  1  0
 27 28  2  0
  7  2  1  0
 13  9  1  0
 21 16  1  0
 28 23  1  0
  3 29  1  0
  4 30  1  0
  5 31  1  0
 14 32  1  0
 15 33  1  0
 15 34  1  0
 17 35  1  0
 18 36  1  0
 19 37  1  0
 20 38  1  0
 24 39  1  0
 25 40  1  0
 26 41  1  0
 27 42  1  0
M  END
>  <_MoleculeID>  (165) 
smi17

>  <_InputIndex>  (165) 
17

>  <_InputSMILES>  (165) 
Clc1cccc(c1Cl)-n1nnnc1NCc1ccccc1Oc1ccccn1

>  <_InputInChIKey>  (165) 
GMVNBKZQJFRFAR-UHFFFAOYSA-N

>  <_SMILES>  (165) 
Clc1cccc(-n2nnnc2NCc2ccccc2Oc2ccccn2)c1Cl

>  <_InChIKey>  (165) 
GMVNBKZQJFRFAR-UHFFFAOYSA-N

$$$$
smi18_conf0
     RDKit          3D

 46 48  0  0  0  0  0  0  0  0999 V2000
   -2.2609    0.1298   -1.1734 C   0  0  0  0  0  0  0  0  0  0  0  0
   -0.7352    0.0656   -1.3302 C   0  0  0  0  0  0  0  0  0  0  0  0
    0.0000    0.0000    0.0000 C   0  0  0  0  0  0  0  0  0  0  0  0
   -0.5943    0.0000    1.0752 O   0  0  0  0  0  0  0  0  0  0  0  0
    1.4310    0.0000    0.0000 C   0  0  0  0  0  0  0  0  0  0  0  0
    2.2730   -0.0037   -1.1307 C   0  0  0  0  0  0  0  0  0  0  0  0
    3.5866    0.0140   -0.6932 C   0  0  0  0  0  0  0  0  0  0  0  0
    4.8422    0.0296   -1.3898 C   0  0  0  0  0  0  0  0  0  0  0  0
    5.8269    0.9643   -1.0599 C   0  0  0  0  0  0  0  0  0  0  0  0
    7.0563    0.9852   -1.7350 C   0  0  0  0  0  0  0  0  0  0  0  0
    7.3516    0.0793   -2.7654 C   0  0  0  0  0  0  0  0  0  0  0  0
    8.8567    0.0977   -3.5997 Cl  0  0  0  0  0  0  0  0  0  0  0  0
    6.3310   -0.8385   -3.0807 C   0  0  0  0  0  0  0  0  0  0  0  0
    5.0951   -0.8746   -2.4207 C   0  0  0  0  0  0  0  0  0  0  0  0
    3.5511   -0.0139    0.6990 N   0  0  0  0  0  0  0  0  0  0  0  0
    2.2300   -0.0000    1.1270 C   0  0  0  0  0  0  0  0  0  0  0  0
    1.9140    0.0007    2.5637 C   0  0  0  0  0  0  0  0  0  0  0  0
    4.6644   -0.0178    1.5279 C   0  0  0  0  0  0  0  0  0  0  0  0
    5.6055   -1.0475    1.4498 C   0  0  0  0  0  0  0  0  0  0  0  0
    6.7337   -1.0580    2.2833 C   0  0  0  0  0  0  0  0  0  0  0  0
    6.9668   -0.0465    3.2278 C   0  0  0  0  0  0  0  0  0  0  0  0
    5.9907    0.9668    3.2887 C   0  0  0  0  0  0  0  0  0  0  0  0
    4.8554    0.9947    2.4674 C   0  0  0  0  0  0  0  0  0  0  0  0
    8.3869   -0.0513    4.2843 S   0  0  0  0  0  6  0  0  0  0  0  0
    9.5053    0.8243    3.3266 N   0  0  0  0  0  0  0  0  0  0  0  0
    8.8429   -1.4224    4.4063 O   0  0  0  0  0  0  0  0  0  0  0  0
    8.0599    0.7233    5.4656 O   0  0  0  0  0  0  0  0  0  0  0  0
   -2.6292   -0.7373   -0.6160 H   0  0  0  0  0  0  0  0  0  0  0  0
   -2.7439    0.1441   -2.1548 H   0  0  0  0  0  0  0  0  0  0  0  0
   -2.5538    1.0311   -0.6257 H   0  0  0  0  0  0  0  0  0  0  0  0
   -0.3849    0.9088   -1.9313 H   0  0  0  0  0  0  0  0  0  0  0  0
   -0.4413   -0.8199   -1.9091 H   0  0  0  0  0  0  0  0  0  0  0  0
    1.9570   -0.0028   -2.1655 H   0  0  0  0  0  0  0  0  0  0  0  0
    5.6487    1.6933   -0.2728 H   0  0  0  0  0  0  0  0  0  0  0  0
    7.7747    1.7424   -1.4308 H   0  0  0  0  0  0  0  0  0  0  0  0
    6.5131   -1.5569   -3.8790 H   0  0  0  0  0  0  0  0  0  0  0  0
    4.3370   -1.6024   -2.7007 H   0  0  0  0  0  0  0  0  0  0  0  0
    1.8433    1.0259    2.9391 H   0  0  0  0  0  0  0  0  0  0  0  0
    2.6803   -0.5322    3.1346 H   0  0  0  0  0  0  0  0  0  0  0  0
    0.9569   -0.4954    2.7556 H   0  0  0  0  0  0  0  0  0  0  0  0
    5.4713   -1.8598    0.7392 H   0  0  0  0  0  0  0  0  0  0  0  0
    7.4224   -1.8919    2.1729 H   0  0  0  0  0  0  0  0  0  0  0  0
    6.1265    1.7697    4.0122 H   0  0  0  0  0  0  0  0  0  0  0  0
    4.1282    1.7989    2.5522 H   0  0  0  0  0  0  0  0  0  0  0  0
    9.3092    0.8737    2.3176 H   0  0  0  0  0  0  0  0  0  0  0  0
    9.7767    1.7480    3.6895 H   0  0  0  0  0  0  0  0  0  0  0  0
  1  2  1  0
  2  3  1  0
  3  4  2  0
  3  5  1  0
  5  6  1  0
  6  7  2  0
  7  8  1  0
  8  9  2  0
  9 10  1  0
 10 11  2  0
 11 12  1  0
 11 13  1  0
 13 14  2  0
  7 15  1  0
 15 16  1  0
 16 17  1  0
 15 18  1  0
 18 19  2  0
 19 20  1  0
 20 21  2  0
 21 22  1  0
 22 23  2  0
 21 24  1  0
 24 25  1  0
 24 26  2  0
 24 27  2  0
 16  5  2  0
 23 18  1  0
 14  8  1  0
  1 28  1  0
  1 29  1  0
  1 30  1  0
  2 31  1  0
  2 32  1  0
  6 33  1  0
  9 34  1  0
 10 35  1  0
 13 36  1  0
 14 37  1  0
 17 38  1  0
 17 39  1  0
 17 40  1  0
 19 41  1  0
 20 42  1  0
 22 43  1  0
 23 44  1  0
 25 45  1  0
 25 46  1  0
M  END
>  <_MoleculeID>  (166) 
smi18

>  <_InputIndex>  (166) 
18

>  <_InputSMILES>  (166) 
CCC(=O)c1cc(-c2ccc(Cl)cc2)n(c1C)-c1ccc(cc1)S(N)(=O)=O

>  <_InputInChIKey>  (166) 
ABACVOXFUHDKNZ-UHFFFAOYSA-N

>  <_SMILES>  (166) 
CCC(=O)c1cc(-c2ccc(Cl)cc2)n(-c2ccc(S(N)(=O)=O)cc2)c1C

>  <_InChIKey>  (166) 
ABACVOXFUHDKNZ-UHFFFAOYSA-N

$$$$
smi18_conf1
     RDKit          3D

 46 48  0  0  0  0  0  0  0  0999 V2000
   -2.2609    0.1298   -1.1734 C   0  0  0  0  0  0  0  0  0  0  0  0
   -0.7352    0.0656   -1.3302 C   0  0  0  0  0  0  0  0  0  0  0  0
    0.0000    0.0000    0.0000 C   0  0  0  0  0  0  0  0  0  0  0  0
   -0.5943    0.0000    1.0752 O   0  0  0  0  0  0  0  0  0  0  0  0
    1.4310    0.0000    0.0000 C   0  0  0  0  0  0  0  0  0  0  0  0
    2.2730   -0.0037   -1.1307 C   0  0  0  0  0  0  0  0  0  0  0  0
    3.5866    0.0140   -0.6932 C   0  0  0  0  0  0  0  0  0  0  0  0
    4.8422    0.0296   -1.3898 C   0  0  0  0  0  0  0  0  0  0  0  0
    5.8269    0.9643   -1.0599 C   0  0  0  0  0  0  0  0  0  0  0  0
    7.0563    0.9852   -1.7350 C   0  0  0  0  0  0  0  0  0  0  0  0
    7.3516    0.0793   -2.7654 C   0  0  0  0  0  0  0  0  0  0  0  0
    8.8567    0.0977   -3.5997 Cl  0  0  0  0  0  0  0  0  0  0  0  0
    6.3310   -0.8385   -3.0807 C   0  0  0  0  0  0  0  0  0  0  0  0
    5.0951   -0.8746   -2.4207 C   0  0  0  0  0  0  0  0  0  0  0  0
    3.5511   -0.0139    0.6990 N   0  0  0  0  0  0  0  0  0  0  0  0
    2.2300   -0.0000    1.1270 C   0  0  0  0  0  0  0  0  0  0  0  0
    1.9140    0.0007    2.5637 C   0  0  0  0  0  0  0  0  0  0  0  0
    4.6644   -0.0178    1.5279 C   0  0  0  0  0  0  0  0  0  0  0  0
    5.2212    1.1825    1.9764 C   0  0  0  0  0  0  0  0  0  0  0  0
    6.3456    1.1869    2.8150 C   0  0  0  0  0  0  0  0  0  0  0  0
    6.9602   -0.0022    3.2368 C   0  0  0  0  0  0  0  0  0  0  0  0
    6.3813   -1.1918    2.7540 C   0  0  0  0  0  0  0  0  0  0  0  0
    5.2601   -1.2182    1.9134 C   0  0  0  0  0  0  0  0  0  0  0  0
    8.3796   -0.0070    4.2943 S   0  0  0  0  0  6  0  0  0  0  0  0
    7.6339   -0.0489    5.8361 N   0  0  0  0  0  0  0  0  0  0  0  0
    9.0562    1.2653    4.1325 O   0  0  0  0  0  0  0  0  0  0  0  0
    9.0899   -1.2515    4.0729 O   0  0  0  0  0  0  0  0  0  0  0  0
   -2.6292   -0.7373   -0.6160 H   0  0  0  0  0  0  0  0  0  0  0  0
   -2.7439    0.1441   -2.1548 H   0  0  0  0  0  0  0  0  0  0  0  0
   -2.5538    1.0311   -0.6257 H   0  0  0  0  0  0  0  0  0  0  0  0
   -0.3849    0.9088   -1.9313 H   0  0  0  0  0  0  0  0  0  0  0  0
   -0.4413   -0.8199   -1.9091 H   0  0  0  0  0  0  0  0  0  0  0  0
    1.9570   -0.0028   -2.1655 H   0  0  0  0  0  0  0  0  0  0  0  0
    5.6487    1.6933   -0.2728 H   0  0  0  0  0  0  0  0  0  0  0  0
    7.7747    1.7424   -1.4308 H   0  0  0  0  0  0  0  0  0  0  0  0
    6.5131   -1.5569   -3.8790 H   0  0  0  0  0  0  0  0  0  0  0  0
    4.3370   -1.6024   -2.7007 H   0  0  0  0  0  0  0  0  0  0  0  0
    1.8433    1.0259    2.9391 H   0  0  0  0  0  0  0  0  0  0  0  0
    2.6803   -0.5322    3.1346 H   0  0  0  0  0  0  0  0  0  0  0  0
    0.9569   -0.4954    2.7556 H   0  0  0  0  0  0  0  0  0  0  0  0
    4.7881    2.1337    1.6755 H   0  0  0  0  0  0  0  0  0  0  0  0
    6.7300    2.1564    3.1219 H   0  0  0  0  0  0  0  0  0  0  0  0
    6.8293   -2.1395    3.0500 H   0  0  0  0  0  0  0  0  0  0  0  0
    4.8490   -2.1629    1.5654 H   0  0  0  0  0  0  0  0  0  0  0  0
    6.6528    0.2584    5.8825 H   0  0  0  0  0  0  0  0  0  0  0  0
    7.7688   -0.9157    6.3738 H   0  0  0  0  0  0  0  0  0  0  0  0
  1  2  1  0
  2  3  1  0
  3  4  2  0
  3  5  1  0
  5  6  1  0
  6  7  2  0
  7  8  1  0
  8  9  2  0
  9 10  1  0
 10 11  2  0
 11 12  1  0
 11 13  1  0
 13 14  2  0
  7 15  1  0
 15 16  1  0
 16 17  1  0
 15 18  1  0
 18 19  2  0
 19 20  1  0
 20 21  2  0
 21 22  1  0
 22 23  2  0
 21 24  1  0
 24 25  1  0
 24 26  2  0
 24 27  2  0
 16  5  2  0
 23 18  1  0
 14  8  1  0
  1 28  1  0
  1 29  1  0
  1 30  1  0
  2 31  1  0
  2 32  1  0
  6 33  1  0
  9 34  1  0
 10 35  1  0
 13 36  1  0
 14 37  1  0
 17 38  1  0
 17 39  1  0
 17 40  1  0
 19 41  1  0
 20 42  1  0
 22 43  1  0
 23 44  1  0
 25 45  1  0
 25 46  1  0
M  END
>  <_MoleculeID>  (167) 
smi18

>  <_InputIndex>  (167) 
18

>  <_InputSMILES>  (167) 
CCC(=O)c1cc(-c2ccc(Cl)cc2)n(c1C)-c1ccc(cc1)S(N)(=O)=O

>  <_InputInChIKey>  (167) 
ABACVOXFUHDKNZ-UHFFFAOYSA-N

>  <_SMILES>  (167) 
CCC(=O)c1cc(-c2ccc(Cl)cc2)n(-c2ccc(S(N)(=O)=O)cc2)c1C

>  <_InChIKey>  (167) 
ABACVOXFUHDKNZ-UHFFFAOYSA-N

$$$$
smi18_conf2
     RDKit          3D

 46 48  0  0  0  0  0  0  0  0999 V2000
   -2.2609    0.1298   -1.1734 C   0  0  0  0  0  0  0  0  0  0  0  0
   -0.7352    0.0656   -1.3302 C   0  0  0  0  0  0  0  0  0  0  0  0
    0.0000    0.0000    0.0000 C   0  0  0  0  0  0  0  0  0  0  0  0
   -0.5943    0.0000    1.0752 O   0  0  0  0  0  0  0  0  0  0  0  0
    1.4310    0.0000    0.0000 C   0  0  0  0  0  0  0  0  0  0  0  0
    2.2730   -0.0037   -1.1307 C   0  0  0  0  0  0  0  0  0  0  0  0
    3.5866    0.0140   -0.6932 C   0  0  0  0  0  0  0  0  0  0  0  0
    4.8422    0.0296   -1.3898 C   0  0  0  0  0  0  0  0  0  0  0  0
    5.0070    0.8033   -2.5414 C   0  0  0  0  0  0  0  0  0  0  0  0
    6.2307    0.8246   -3.2268 C   0  0  0  0  0  0  0  0  0  0  0  0
    7.3355    0.0749   -2.7944 C   0  0  0  0  0  0  0  0  0  0  0  0
    8.8405    0.0941   -3.6290 Cl  0  0  0  0  0  0  0  0  0  0  0  0
    7.1289   -0.7039   -1.6394 C   0  0  0  0  0  0  0  0  0  0  0  0
    5.9140   -0.7415   -0.9415 C   0  0  0  0  0  0  0  0  0  0  0  0
    3.5511   -0.0139    0.6990 N   0  0  0  0  0  0  0  0  0  0  0  0
    2.2300    0.0000    1.1270 C   0  0  0  0  0  0  0  0  0  0  0  0
    1.9140    0.0007    2.5637 C   0  0  0  0  0  0  0  0  0  0  0  0
    4.6644   -0.0178    1.5279 C   0  0  0  0  0  0  0  0  0  0  0  0
    4.8874   -1.0747    2.4141 C   0  0  0  0  0  0  0  0  0  0  0  0
    6.0106   -1.0864    3.2543 C   0  0  0  0  0  0  0  0  0  0  0  0
    6.9527   -0.0461    3.2467 C   0  0  0  0  0  0  0  0  0  0  0  0
    6.6883    1.0087    2.3519 C   0  0  0  0  0  0  0  0  0  0  0  0
    5.5711    1.0412    1.5062 C   0  0  0  0  0  0  0  0  0  0  0  0
    8.3727   -0.0516    4.3034 S   0  0  0  0  0  6  0  0  0  0  0  0
    9.5118   -0.8579    3.3100 N   0  0  0  0  0  0  0  0  0  0  0  0
    8.0693   -0.8888    5.4478 O   0  0  0  0  0  0  0  0  0  0  0  0
    8.7895    1.3248    4.4885 O   0  0  0  0  0  0  0  0  0  0  0  0
   -2.6292   -0.7373   -0.6160 H   0  0  0  0  0  0  0  0  0  0  0  0
   -2.7439    0.1441   -2.1548 H   0  0  0  0  0  0  0  0  0  0  0  0
   -2.5538    1.0311   -0.6257 H   0  0  0  0  0  0  0  0  0  0  0  0
   -0.3849    0.9088   -1.9313 H   0  0  0  0  0  0  0  0  0  0  0  0
   -0.4413   -0.8199   -1.9091 H   0  0  0  0  0  0  0  0  0  0  0  0
    1.9570   -0.0028   -2.1655 H   0  0  0  0  0  0  0  0  0  0  0  0
    4.1817    1.3994   -2.9239 H   0  0  0  0  0  0  0  0  0  0  0  0
    6.2876    1.4443   -4.1182 H   0  0  0  0  0  0  0  0  0  0  0  0
    7.9570   -1.3079   -1.2706 H   0  0  0  0  0  0  0  0  0  0  0  0
    5.8023   -1.3599   -0.0539 H   0  0  0  0  0  0  0  0  0  0  0  0
    1.8433    1.0259    2.9391 H   0  0  0  0  0  0  0  0  0  0  0  0
    2.6803   -0.5322    3.1346 H   0  0  0  0  0  0  0  0  0  0  0  0
    0.9569   -0.4954    2.7556 H   0  0  0  0  0  0  0  0  0  0  0  0
    4.1860   -1.9043    2.4652 H   0  0  0  0  0  0  0  0  0  0  0  0
    6.1195   -1.9369    3.9227 H   0  0  0  0  0  0  0  0  0  0  0  0
    7.3893    1.8418    2.3165 H   0  0  0  0  0  0  0  0  0  0  0  0
    5.4091    1.8791    0.8321 H   0  0  0  0  0  0  0  0  0  0  0  0
    9.1320   -1.4316    2.5447 H   0  0  0  0  0  0  0  0  0  0  0  0
   10.2993   -0.2849    2.9780 H   0  0  0  0  0  0  0  0  0  0  0  0
  1  2  1  0
  2  3  1  0
  3  4  2  0
  3  5  1  0
  5  6  1  0
  6  7  2  0
  7  8  1  0
  8  9  2  0
  9 10  1  0
 10 11  2  0
 11 12  1  0
 11 13  1  0
 13 14  2  0
  7 15  1  0
 15 16  1  0
 16 17  1  0
 15 18  1  0
 18 19  2  0
 19 20  1  0
 20 21  2  0
 21 22  1  0
 22 23  2  0
 21 24  1  0
 24 25  1  0
 24 26  2  0
 24 27  2  0
 16  5  2  0
 23 18  1  0
 14  8  1  0
  1 28  1  0
  1 29  1  0
  1 30  1  0
  2 31  1  0
  2 32  1  0
  6 33  1  0
  9 34  1  0
 10 35  1  0
 13 36  1  0
 14 37  1  0
 17 38  1  0
 17 39  1  0
 17 40  1  0
 19 41  1  0
 20 42  1  0
 22 43  1  0
 23 44  1  0
 25 45  1  0
 25 46  1  0
M  END
>  <_MoleculeID>  (168) 
smi18

>  <_InputIndex>  (168) 
18

>  <_InputSMILES>  (168) 
CCC(=O)c1cc(-c2ccc(Cl)cc2)n(c1C)-c1ccc(cc1)S(N)(=O)=O

>  <_InputInChIKey>  (168) 
ABACVOXFUHDKNZ-UHFFFAOYSA-N

>  <_SMILES>  (168) 
CCC(=O)c1cc(-c2ccc(Cl)cc2)n(-c2ccc(S(N)(=O)=O)cc2)c1C

>  <_InChIKey>  (168) 
ABACVOXFUHDKNZ-UHFFFAOYSA-N

$$$$
smi18_conf3
     RDKit          3D

 46 48  0  0  0  0  0  0  0  0999 V2000
   -2.2609    0.1298   -1.1734 C   0  0  0  0  0  0  0  0  0  0  0  0
   -0.7352    0.0656   -1.3302 C   0  0  0  0  0  0  0  0  0  0  0  0
    0.0000    0.0000    0.0000 C   0  0  0  0  0  0  0  0  0  0  0  0
   -0.5943    0.0000    1.0752 O   0  0  0  0  0  0  0  0  0  0  0  0
    1.4310    0.0000    0.0000 C   0  0  0  0  0  0  0  0  0  0  0  0
    2.2730   -0.0037   -1.1307 C   0  0  0  0  0  0  0  0  0  0  0  0
    3.5866    0.0140   -0.6932 C   0  0  0  0  0  0  0  0  0  0  0  0
    4.8422    0.0296   -1.3898 C   0  0  0  0  0  0  0  0  0  0  0  0
    5.8269    0.9643   -1.0599 C   0  0  0  0  0  0  0  0  0  0  0  0
    7.0563    0.9852   -1.7350 C   0  0  0  0  0  0  0  0  0  0  0  0
    7.3516    0.0793   -2.7654 C   0  0  0  0  0  0  0  0  0  0  0  0
    8.8567    0.0977   -3.5997 Cl  0  0  0  0  0  0  0  0  0  0  0  0
    6.3310   -0.8385   -3.0807 C   0  0  0  0  0  0  0  0  0  0  0  0
    5.0951   -0.8746   -2.4207 C   0  0  0  0  0  0  0  0  0  0  0  0
    3.5511   -0.0139    0.6990 N   0  0  0  0  0  0  0  0  0  0  0  0
    2.2300    0.0000    1.1270 C   0  0  0  0  0  0  0  0  0  0  0  0
    1.9140    0.0007    2.5637 C   0  0  0  0  0  0  0  0  0  0  0  0
    4.6644   -0.0178    1.5279 C   0  0  0  0  0  0  0  0  0  0  0  0
    5.2483   -1.2222    1.9287 C   0  0  0  0  0  0  0  0  0  0  0  0
    6.3741   -1.2344    2.7654 C   0  0  0  0  0  0  0  0  0  0  0  0
    6.9597   -0.0495    3.2373 C   0  0  0  0  0  0  0  0  0  0  0  0
    6.3365    1.1443    2.8251 C   0  0  0  0  0  0  0  0  0  0  0  0
    5.2099    1.1785    1.9921 C   0  0  0  0  0  0  0  0  0  0  0  0
    8.3798   -0.0546    4.2939 S   0  0  0  0  0  6  0  0  0  0  0  0
    8.6597   -1.7374    4.4509 N   0  0  0  0  0  0  0  0  0  0  0  0
    7.9759    0.4780    5.5806 O   0  0  0  0  0  0  0  0  0  0  0  0
    9.4769    0.5460    3.5604 O   0  0  0  0  0  0  0  0  0  0  0  0
   -2.6292   -0.7373   -0.6160 H   0  0  0  0  0  0  0  0  0  0  0  0
   -2.7439    0.1441   -2.1548 H   0  0  0  0  0  0  0  0  0  0  0  0
   -2.5538    1.0311   -0.6257 H   0  0  0  0  0  0  0  0  0  0  0  0
   -0.3849    0.9088   -1.9313 H   0  0  0  0  0  0  0  0  0  0  0  0
   -0.4413   -0.8199   -1.9091 H   0  0  0  0  0  0  0  0  0  0  0  0
    1.9570   -0.0028   -2.1655 H   0  0  0  0  0  0  0  0  0  0  0  0
    5.6487    1.6933   -0.2728 H   0  0  0  0  0  0  0  0  0  0  0  0
    7.7747    1.7424   -1.4308 H   0  0  0  0  0  0  0  0  0  0  0  0
    6.5131   -1.5569   -3.8790 H   0  0  0  0  0  0  0  0  0  0  0  0
    4.3370   -1.6024   -2.7007 H   0  0  0  0  0  0  0  0  0  0  0  0
    1.8433    1.0259    2.9391 H   0  0  0  0  0  0  0  0  0  0  0  0
    2.6803   -0.5322    3.1346 H   0  0  0  0  0  0  0  0  0  0  0  0
    0.9569   -0.4954    2.7556 H   0  0  0  0  0  0  0  0  0  0  0  0
    4.8316   -2.1704    1.5969 H   0  0  0  0  0  0  0  0  0  0  0  0
    6.7739   -2.2067    3.0425 H   0  0  0  0  0  0  0  0  0  0  0  0
    6.7528    2.0890    3.1726 H   0  0  0  0  0  0  0  0  0  0  0  0
    4.7629    2.1263    1.7012 H   0  0  0  0  0  0  0  0  0  0  0  0
    7.8664   -2.3586    4.2412 H   0  0  0  0  0  0  0  0  0  0  0  0
    9.5220   -2.0893    4.0136 H   0  0  0  0  0  0  0  0  0  0  0  0
  1  2  1  0
  2  3  1  0
  3  4  2  0
  3  5  1  0
  5  6  1  0
  6  7  2  0
  7  8  1  0
  8  9  2  0
  9 10  1  0
 10 11  2  0
 11 12  1  0
 11 13  1  0
 13 14  2  0
  7 15  1  0
 15 16  1  0
 16 17  1  0
 15 18  1  0
 18 19  2  0
 19 20  1  0
 20 21  2  0
 21 22  1  0
 22 23  2  0
 21 24  1  0
 24 25  1  0
 24 26  2  0
 24 27  2  0
 16  5  2  0
 23 18  1  0
 14  8  1  0
  1 28  1  0
  1 29  1  0
  1 30  1  0
  2 31  1  0
  2 32  1  0
  6 33  1  0
  9 34  1  0
 10 35  1  0
 13 36  1  0
 14 37  1  0
 17 38  1  0
 17 39  1  0
 17 40  1  0
 19 41  1  0
 20 42  1  0
 22 43  1  0
 23 44  1  0
 25 45  1  0
 25 46  1  0
M  END
>  <_MoleculeID>  (169) 
smi18

>  <_InputIndex>  (169) 
18

>  <_InputSMILES>  (169) 
CCC(=O)c1cc(-c2ccc(Cl)cc2)n(c1C)-c1ccc(cc1)S(N)(=O)=O

>  <_InputInChIKey>  (169) 
ABACVOXFUHDKNZ-UHFFFAOYSA-N

>  <_SMILES>  (169) 
CCC(=O)c1cc(-c2ccc(Cl)cc2)n(-c2ccc(S(N)(=O)=O)cc2)c1C

>  <_InChIKey>  (169) 
ABACVOXFUHDKNZ-UHFFFAOYSA-N

$$$$
smi18_conf4
     RDKit          3D

 46 48  0  0  0  0  0  0  0  0999 V2000
   -2.2609    0.1298   -1.1734 C   0  0  0  0  0  0  0  0  0  0  0  0
   -0.7352    0.0656   -1.3302 C   0  0  0  0  0  0  0  0  0  0  0  0
    0.0000    0.0000    0.0000 C   0  0  0  0  0  0  0  0  0  0  0  0
   -0.5943    0.0000    1.0752 O   0  0  0  0  0  0  0  0  0  0  0  0
    1.4310    0.0000    0.0000 C   0  0  0  0  0  0  0  0  0  0  0  0
    2.2730   -0.0037   -1.1307 C   0  0  0  0  0  0  0  0  0  0  0  0
    3.5866    0.0140   -0.6932 C   0  0  0  0  0  0  0  0  0  0  0  0
    4.8422    0.0296   -1.3898 C   0  0  0  0  0  0  0  0  0  0  0  0
    5.8269    0.9643   -1.0599 C   0  0  0  0  0  0  0  0  0  0  0  0
    7.0563    0.9852   -1.7350 C   0  0  0  0  0  0  0  0  0  0  0  0
    7.3516    0.0793   -2.7654 C   0  0  0  0  0  0  0  0  0  0  0  0
    8.8567    0.0977   -3.5997 Cl  0  0  0  0  0  0  0  0  0  0  0  0
    6.3310   -0.8385   -3.0807 C   0  0  0  0  0  0  0  0  0  0  0  0
    5.0951   -0.8746   -2.4207 C   0  0  0  0  0  0  0  0  0  0  0  0
    3.5511   -0.0139    0.6990 N   0  0  0  0  0  0  0  0  0  0  0  0
    2.2300    0.0000    1.1270 C   0  0  0  0  0  0  0  0  0  0  0  0
    1.9140    0.0007    2.5637 C   0  0  0  0  0  0  0  0  0  0  0  0
    4.6644   -0.0178    1.5279 C   0  0  0  0  0  0  0  0  0  0  0  0
    5.2483   -1.2222    1.9287 C   0  0  0  0  0  0  0  0  0  0  0  0
    6.3741   -1.2344    2.7654 C   0  0  0  0  0  0  0  0  0  0  0  0
    6.9597   -0.0495    3.2373 C   0  0  0  0  0  0  0  0  0  0  0  0
    6.3365    1.1443    2.8251 C   0  0  0  0  0  0  0  0  0  0  0  0
    5.2099    1.1785    1.9921 C   0  0  0  0  0  0  0  0  0  0  0  0
    8.3798   -0.0546    4.2939 S   0  0  0  0  0  6  0  0  0  0  0  0
    8.6185    1.6263    4.5227 N   0  0  0  0  0  0  0  0  0  0  0  0
    9.4937   -0.5899    3.5353 O   0  0  0  0  0  0  0  0  0  0  0  0
    7.9897   -0.6578    5.5533 O   0  0  0  0  0  0  0  0  0  0  0  0
   -2.6292   -0.7373   -0.6160 H   0  0  0  0  0  0  0  0  0  0  0  0
   -2.7439    0.1441   -2.1548 H   0  0  0  0  0  0  0  0  0  0  0  0
   -2.5538    1.0311   -0.6257 H   0  0  0  0  0  0  0  0  0  0  0  0
   -0.3849    0.9088   -1.9313 H   0  0  0  0  0  0  0  0  0  0  0  0
   -0.4413   -0.8199   -1.9091 H   0  0  0  0  0  0  0  0  0  0  0  0
    1.9570   -0.0028   -2.1655 H   0  0  0  0  0  0  0  0  0  0  0  0
    5.6487    1.6933   -0.2728 H   0  0  0  0  0  0  0  0  0  0  0  0
    7.7747    1.7424   -1.4308 H   0  0  0  0  0  0  0  0  0  0  0  0
    6.5131   -1.5569   -3.8790 H   0  0  0  0  0  0  0  0  0  0  0  0
    4.3370   -1.6024   -2.7007 H   0  0  0  0  0  0  0  0  0  0  0  0
    1.8433    1.0259    2.9391 H   0  0  0  0  0  0  0  0  0  0  0  0
    2.6803   -0.5322    3.1346 H   0  0  0  0  0  0  0  0  0  0  0  0
    0.9569   -0.4954    2.7556 H   0  0  0  0  0  0  0  0  0  0  0  0
    4.8316   -2.1704    1.5969 H   0  0  0  0  0  0  0  0  0  0  0  0
    6.7739   -2.2067    3.0425 H   0  0  0  0  0  0  0  0  0  0  0  0
    6.7528    2.0890    3.1726 H   0  0  0  0  0  0  0  0  0  0  0  0
    4.7629    2.1263    1.7012 H   0  0  0  0  0  0  0  0  0  0  0  0
    8.1926    2.2518    3.8253 H   0  0  0  0  0  0  0  0  0  0  0  0
    8.4491    1.9756    5.4755 H   0  0  0  0  0  0  0  0  0  0  0  0
  1  2  1  0
  2  3  1  0
  3  4  2  0
  3  5  1  0
  5  6  1  0
  6  7  2  0
  7  8  1  0
  8  9  2  0
  9 10  1  0
 10 11  2  0
 11 12  1  0
 11 13  1  0
 13 14  2  0
  7 15  1  0
 15 16  1  0
 16 17  1  0
 15 18  1  0
 18 19  2  0
 19 20  1  0
 20 21  2  0
 21 22  1  0
 22 23  2  0
 21 24  1  0
 24 25  1  0
 24 26  2  0
 24 27  2  0
 16  5  2  0
 23 18  1  0
 14  8  1  0
  1 28  1  0
  1 29  1  0
  1 30  1  0
  2 31  1  0
  2 32  1  0
  6 33  1  0
  9 34  1  0
 10 35  1  0
 13 36  1  0
 14 37  1  0
 17 38  1  0
 17 39  1  0
 17 40  1  0
 19 41  1  0
 20 42  1  0
 22 43  1  0
 23 44  1  0
 25 45  1  0
 25 46  1  0
M  END
>  <_MoleculeID>  (170) 
smi18

>  <_InputIndex>  (170) 
18

>  <_InputSMILES>  (170) 
CCC(=O)c1cc(-c2ccc(Cl)cc2)n(c1C)-c1ccc(cc1)S(N)(=O)=O

>  <_InputInChIKey>  (170) 
ABACVOXFUHDKNZ-UHFFFAOYSA-N

>  <_SMILES>  (170) 
CCC(=O)c1cc(-c2ccc(Cl)cc2)n(-c2ccc(S(N)(=O)=O)cc2)c1C

>  <_InChIKey>  (170) 
ABACVOXFUHDKNZ-UHFFFAOYSA-N

$$$$
smi18_conf5
     RDKit          3D

 46 48  0  0  0  0  0  0  0  0999 V2000
   -2.2609    0.1298   -1.1734 C   0  0  0  0  0  0  0  0  0  0  0  0
   -0.7352    0.0656   -1.3302 C   0  0  0  0  0  0  0  0  0  0  0  0
    0.0000    0.0000    0.0000 C   0  0  0  0  0  0  0  0  0  0  0  0
   -0.5943    0.0000    1.0752 O   0  0  0  0  0  0  0  0  0  0  0  0
    1.4310    0.0000    0.0000 C   0  0  0  0  0  0  0  0  0  0  0  0
    2.2730   -0.0037   -1.1307 C   0  0  0  0  0  0  0  0  0  0  0  0
    3.5866    0.0140   -0.6932 C   0  0  0  0  0  0  0  0  0  0  0  0
    4.8422    0.0296   -1.3898 C   0  0  0  0  0  0  0  0  0  0  0  0
    5.0070    0.8033   -2.5414 C   0  0  0  0  0  0  0  0  0  0  0  0
    6.2307    0.8246   -3.2268 C   0  0  0  0  0  0  0  0  0  0  0  0
    7.3355    0.0749   -2.7944 C   0  0  0  0  0  0  0  0  0  0  0  0
    8.8405    0.0941   -3.6290 Cl  0  0  0  0  0  0  0  0  0  0  0  0
    7.1289   -0.7039   -1.6394 C   0  0  0  0  0  0  0  0  0  0  0  0
    5.9140   -0.7415   -0.9415 C   0  0  0  0  0  0  0  0  0  0  0  0
    3.5511   -0.0139    0.6990 N   0  0  0  0  0  0  0  0  0  0  0  0
    2.2300    0.0000    1.1270 C   0  0  0  0  0  0  0  0  0  0  0  0
    1.9140    0.0007    2.5637 C   0  0  0  0  0  0  0  0  0  0  0  0
    4.6644   -0.0178    1.5279 C   0  0  0  0  0  0  0  0  0  0  0  0
    5.2212    1.1825    1.9764 C   0  0  0  0  0  0  0  0  0  0  0  0
    6.3456    1.1869    2.8150 C   0  0  0  0  0  0  0  0  0  0  0  0
    6.9602   -0.0022    3.2368 C   0  0  0  0  0  0  0  0  0  0  0  0
    6.3813   -1.1918    2.7540 C   0  0  0  0  0  0  0  0  0  0  0  0
    5.2601   -1.2182    1.9134 C   0  0  0  0  0  0  0  0  0  0  0  0
    8.3796   -0.0070    4.2943 S   0  0  0  0  0  6  0  0  0  0  0  0
    7.6339   -0.0489    5.8361 N   0  0  0  0  0  0  0  0  0  0  0  0
    9.0562    1.2653    4.1325 O   0  0  0  0  0  0  0  0  0  0  0  0
    9.0899   -1.2515    4.0729 O   0  0  0  0  0  0  0  0  0  0  0  0
   -2.6292   -0.7373   -0.6160 H   0  0  0  0  0  0  0  0  0  0  0  0
   -2.7439    0.1441   -2.1548 H   0  0  0  0  0  0  0  0  0  0  0  0
   -2.5538    1.0311   -0.6257 H   0  0  0  0  0  0  0  0  0  0  0  0
   -0.3849    0.9088   -1.9313 H   0  0  0  0  0  0  0  0  0  0  0  0
   -0.4413   -0.8199   -1.9091 H   0  0  0  0  0  0  0  0  0  0  0  0
    1.9570   -0.0028   -2.1655 H   0  0  0  0  0  0  0  0  0  0  0  0
    4.1817    1.3994   -2.9239 H   0  0  0  0  0  0  0  0  0  0  0  0
    6.2876    1.4443   -4.1182 H   0  0  0  0  0  0  0  0  0  0  0  0
    7.9570   -1.3079   -1.2706 H   0  0  0  0  0  0  0  0  0  0  0  0
    5.8023   -1.3599   -0.0539 H   0  0  0  0  0  0  0  0  0  0  0  0
    1.8433    1.0259    2.9391 H   0  0  0  0  0  0  0  0  0  0  0  0
    2.6803   -0.5322    3.1346 H   0  0  0  0  0  0  0  0  0  0  0  0
    0.9569   -0.4954    2.7556 H   0  0  0  0  0  0  0  0  0  0  0  0
    4.7881    2.1337    1.6755 H   0  0  0  0  0  0  0  0  0  0  0  0
    6.7300    2.1564    3.1219 H   0  0  0  0  0  0  0  0  0  0  0  0
    6.8293   -2.1395    3.0500 H   0  0  0  0  0  0  0  0  0  0  0  0
    4.8490   -2.1629    1.5654 H   0  0  0  0  0  0  0  0  0  0  0  0
    6.6528    0.2584    5.8825 H   0  0  0  0  0  0  0  0  0  0  0  0
    7.7688   -0.9157    6.3738 H   0  0  0  0  0  0  0  0  0  0  0  0
  1  2  1  0
  2  3  1  0
  3  4  2  0
  3  5  1  0
  5  6  1  0
  6  7  2  0
  7  8  1  0
  8  9  2  0
  9 10  1  0
 10 11  2  0
 11 12  1  0
 11 13  1  0
 13 14  2  0
  7 15  1  0
 15 16  1  0
 16 17  1  0
 15 18  1  0
 18 19  2  0
 19 20  1  0
 20 21  2  0
 21 22  1  0
 22 23  2  0
 21 24  1  0
 24 25  1  0
 24 26  2  0
 24 27  2  0
 16  5  2  0
 23 18  1  0
 14  8  1  0
  1 28  1  0
  1 29  1  0
  1 30  1  0
  2 31  1  0
  2 32  1  0
  6 33  1  0
  9 34  1  0
 10 35  1  0
 13 36  1  0
 14 37  1  0
 17 38  1  0
 17 39  1  0
 17 40  1  0
 19 41  1  0
 20 42  1  0
 22 43  1  0
 23 44  1  0
 25 45  1  0
 25 46  1  0
M  END
>  <_MoleculeID>  (171) 
smi18

>  <_InputIndex>  (171) 
18

>  <_InputSMILES>  (171) 
CCC(=O)c1cc(-c2ccc(Cl)cc2)n(c1C)-c1ccc(cc1)S(N)(=O)=O

>  <_InputInChIKey>  (171) 
ABACVOXFUHDKNZ-UHFFFAOYSA-N

>  <_SMILES>  (171) 
CCC(=O)c1cc(-c2ccc(Cl)cc2)n(-c2ccc(S(N)(=O)=O)cc2)c1C

>  <_InChIKey>  (171) 
ABACVOXFUHDKNZ-UHFFFAOYSA-N

$$$$
smi18_conf6
     RDKit          3D

 46 48  0  0  0  0  0  0  0  0999 V2000
   -2.2609    0.1298   -1.1734 C   0  0  0  0  0  0  0  0  0  0  0  0
   -0.7352    0.0656   -1.3302 C   0  0  0  0  0  0  0  0  0  0  0  0
    0.0000    0.0000    0.0000 C   0  0  0  0  0  0  0  0  0  0  0  0
   -0.5943    0.0000    1.0752 O   0  0  0  0  0  0  0  0  0  0  0  0
    1.4310    0.0000    0.0000 C   0  0  0  0  0  0  0  0  0  0  0  0
    2.2730    0.0037    1.1307 C   0  0  0  0  0  0  0  0  0  0  0  0
    3.5866   -0.0140    0.6932 C   0  0  0  0  0  0  0  0  0  0  0  0
    4.8422   -0.0296    1.3898 C   0  0  0  0  0  0  0  0  0  0  0  0
    5.0770   -0.9527    2.4120 C   0  0  0  0  0  0  0  0  0  0  0  0
    6.3012   -0.9748    3.0963 C   0  0  0  0  0  0  0  0  0  0  0  0
    7.3369   -0.0779    2.7919 C   0  0  0  0  0  0  0  0  0  0  0  0
    8.8419   -0.0971    3.6265 Cl  0  0  0  0  0  0  0  0  0  0  0  0
    7.0600    0.8471    1.7668 C   0  0  0  0  0  0  0  0  0  0  0  0
    5.8431    0.8880    1.0726 C   0  0  0  0  0  0  0  0  0  0  0  0
    3.5511    0.0139   -0.6990 N   0  0  0  0  0  0  0  0  0  0  0  0
    2.2300   -0.0000   -1.1270 C   0  0  0  0  0  0  0  0  0  0  0  0
    1.9140   -0.0007   -2.5637 C   0  0  0  0  0  0  0  0  0  0  0  0
    4.6644    0.0178   -1.5279 C   0  0  0  0  0  0  0  0  0  0  0  0
    4.8874    1.0747   -2.4141 C   0  0  0  0  0  0  0  0  0  0  0  0
    6.0106    1.0864   -3.2543 C   0  0  0  0  0  0  0  0  0  0  0  0
    6.9527    0.0461   -3.2467 C   0  0  0  0  0  0  0  0  0  0  0  0
    6.6883   -1.0087   -2.3519 C   0  0  0  0  0  0  0  0  0  0  0  0
    5.5711   -1.0412   -1.5062 C   0  0  0  0  0  0  0  0  0  0  0  0
    8.3727    0.0516   -4.3034 S   0  0  0  0  0  6  0  0  0  0  0  0
    9.5118    0.8579   -3.3100 N   0  0  0  0  0  0  0  0  0  0  0  0
    8.0693    0.8888   -5.4478 O   0  0  0  0  0  0  0  0  0  0  0  0
    8.7895   -1.3248   -4.4885 O   0  0  0  0  0  0  0  0  0  0  0  0
   -2.6292   -0.7373   -0.6160 H   0  0  0  0  0  0  0  0  0  0  0  0
   -2.7439    0.1441   -2.1548 H   0  0  0  0  0  0  0  0  0  0  0  0
   -2.5538    1.0311   -0.6257 H   0  0  0  0  0  0  0  0  0  0  0  0
   -0.3849    0.9088   -1.9313 H   0  0  0  0  0  0  0  0  0  0  0  0
   -0.4413   -0.8199   -1.9091 H   0  0  0  0  0  0  0  0  0  0  0  0
    1.9570    0.0028    2.1655 H   0  0  0  0  0  0  0  0  0  0  0  0
    4.3066   -1.6672    2.6926 H   0  0  0  0  0  0  0  0  0  0  0  0
    6.4142   -1.7157    3.8839 H   0  0  0  0  0  0  0  0  0  0  0  0
    7.8325    1.5676    1.5009 H   0  0  0  0  0  0  0  0  0  0  0  0
    5.6756    1.6224    0.2882 H   0  0  0  0  0  0  0  0  0  0  0  0
    1.8433   -1.0259   -2.9391 H   0  0  0  0  0  0  0  0  0  0  0  0
    2.6803    0.5322   -3.1346 H   0  0  0  0  0  0  0  0  0  0  0  0
    0.9569    0.4954   -2.7556 H   0  0  0  0  0  0  0  0  0  0  0  0
    4.1860    1.9043   -2.4652 H   0  0  0  0  0  0  0  0  0  0  0  0
    6.1195    1.9369   -3.9227 H   0  0  0  0  0  0  0  0  0  0  0  0
    7.3893   -1.8418   -2.3165 H   0  0  0  0  0  0  0  0  0  0  0  0
    5.4091   -1.8791   -0.8321 H   0  0  0  0  0  0  0  0  0  0  0  0
    9.1320    1.4316   -2.5447 H   0  0  0  0  0  0  0  0  0  0  0  0
   10.2993    0.2849   -2.9780 H   0  0  0  0  0  0  0  0  0  0  0  0
  1  2  1  0
  2  3  1  0
  3  4  2  0
  3  5  1  0
  5  6  1  0
  6  7  2  0
  7  8  1  0
  8  9  2  0
  9 10  1  0
 10 11  2  0
 11 12  1  0
 11 13  1  0
 13 14  2  0
  7 15  1  0
 15 16  1  0
 16 17  1  0
 15 18  1  0
 18 19  2  0
 19 20  1  0
 20 21  2  0
 21 22  1  0
 22 23  2  0
 21 24  1  0
 24 25  1  0
 24 26  2  0
 24 27  2  0
 16  5  2  0
 23 18  1  0
 14  8  1  0
  1 28  1  0
  1 29  1  0
  1 30  1  0
  2 31  1  0
  2 32  1  0
  6 33  1  0
  9 34  1  0
 10 35  1  0
 13 36  1  0
 14 37  1  0
 17 38  1  0
 17 39  1  0
 17 40  1  0
 19 41  1  0
 20 42  1  0
 22 43  1  0
 23 44  1  0
 25 45  1  0
 25 46  1  0
M  END
>  <_MoleculeID>  (172) 
smi18

>  <_InputIndex>  (172) 
18

>  <_InputSMILES>  (172) 
CCC(=O)c1cc(-c2ccc(Cl)cc2)n(c1C)-c1ccc(cc1)S(N)(=O)=O

>  <_InputInChIKey>  (172) 
ABACVOXFUHDKNZ-UHFFFAOYSA-N

>  <_SMILES>  (172) 
CCC(=O)c1cc(-c2ccc(Cl)cc2)n(-c2ccc(S(N)(=O)=O)cc2)c1C

>  <_InChIKey>  (172) 
ABACVOXFUHDKNZ-UHFFFAOYSA-N

$$$$
smi18_conf7
     RDKit          3D

 46 48  0  0  0  0  0  0  0  0999 V2000
   -2.2609    0.1298   -1.1734 C   0  0  0  0  0  0  0  0  0  0  0  0
   -0.7352    0.0656   -1.3302 C   0  0  0  0  0  0  0  0  0  0  0  0
    0.0000    0.0000    0.0000 C   0  0  0  0  0  0  0  0  0  0  0  0
   -0.5943    0.0000    1.0752 O   0  0  0  0  0  0  0  0  0  0  0  0
    1.4310   -0.0000    0.0000 C   0  0  0  0  0  0  0  0  0  0  0  0
    2.2730    0.0037    1.1307 C   0  0  0  0  0  0  0  0  0  0  0  0
    3.5866   -0.0140    0.6932 C   0  0  0  0  0  0  0  0  0  0  0  0
    4.8422   -0.0296    1.3898 C   0  0  0  0  0  0  0  0  0  0  0  0
    5.9007   -0.8172    0.9301 C   0  0  0  0  0  0  0  0  0  0  0  0
    7.1306   -0.8369    1.6044 C   0  0  0  0  0  0  0  0  0  0  0  0
    7.3531   -0.0765    2.7628 C   0  0  0  0  0  0  0  0  0  0  0  0
    8.8582   -0.0948    3.5971 Cl  0  0  0  0  0  0  0  0  0  0  0  0
    6.2602    0.6937    3.2052 C   0  0  0  0  0  0  0  0  0  0  0  0
    5.0226    0.7255    2.5480 C   0  0  0  0  0  0  0  0  0  0  0  0
    3.5511    0.0139   -0.6990 N   0  0  0  0  0  0  0  0  0  0  0  0
    2.2300   -0.0000   -1.1270 C   0  0  0  0  0  0  0  0  0  0  0  0
    1.9140   -0.0007   -2.5637 C   0  0  0  0  0  0  0  0  0  0  0  0
    4.6644    0.0178   -1.5279 C   0  0  0  0  0  0  0  0  0  0  0  0
    4.8640   -1.0079   -2.4554 C   0  0  0  0  0  0  0  0  0  0  0  0
    5.9860   -1.0105   -3.2972 C   0  0  0  0  0  0  0  0  0  0  0  0
    6.9532    0.0052   -3.2463 C   0  0  0  0  0  0  0  0  0  0  0  0
    6.7271    1.0143   -2.2904 C   0  0  0  0  0  0  0  0  0  0  0  0
    5.6146    1.0343   -1.4381 C   0  0  0  0  0  0  0  0  0  0  0  0
    8.3725    0.0103   -4.3039 S   0  0  0  0  0  6  0  0  0  0  0  0
    9.4917   -0.8652   -3.3470 N   0  0  0  0  0  0  0  0  0  0  0  0
    8.8283    1.3814   -4.4261 O   0  0  0  0  0  0  0  0  0  0  0  0
    8.0447   -0.7642   -5.4849 O   0  0  0  0  0  0  0  0  0  0  0  0
   -2.6292   -0.7373   -0.6160 H   0  0  0  0  0  0  0  0  0  0  0  0
   -2.7439    0.1441   -2.1548 H   0  0  0  0  0  0  0  0  0  0  0  0
   -2.5538    1.0311   -0.6257 H   0  0  0  0  0  0  0  0  0  0  0  0
   -0.3849    0.9088   -1.9313 H   0  0  0  0  0  0  0  0  0  0  0  0
   -0.4413   -0.8199   -1.9091 H   0  0  0  0  0  0  0  0  0  0  0  0
    1.9570    0.0028    2.1655 H   0  0  0  0  0  0  0  0  0  0  0  0
    5.7811   -1.4306    0.0400 H   0  0  0  0  0  0  0  0  0  0  0  0
    7.9089   -1.4760    1.1948 H   0  0  0  0  0  0  0  0  0  0  0  0
    6.3847    1.2951    4.1048 H   0  0  0  0  0  0  0  0  0  0  0  0
    4.2071    1.3360    2.9289 H   0  0  0  0  0  0  0  0  0  0  0  0
    1.8433   -1.0259   -2.9391 H   0  0  0  0  0  0  0  0  0  0  0  0
    2.6803    0.5322   -3.1346 H   0  0  0  0  0  0  0  0  0  0  0  0
    0.9569    0.4954   -2.7556 H   0  0  0  0  0  0  0  0  0  0  0  0
    4.1484   -1.8231   -2.5333 H   0  0  0  0  0  0  0  0  0  0  0  0
    6.0815   -1.8417   -3.9914 H   0  0  0  0  0  0  0  0  0  0  0  0
    7.4555    1.8203   -2.2103 H   0  0  0  0  0  0  0  0  0  0  0  0
    5.4837    1.8355   -0.7145 H   0  0  0  0  0  0  0  0  0  0  0  0
    9.2962   -0.9147   -2.3378 H   0  0  0  0  0  0  0  0  0  0  0  0
    9.7629   -1.7889   -3.7101 H   0  0  0  0  0  0  0  0  0  0  0  0
  1  2  1  0
  2  3  1  0
  3  4  2  0
  3  5  1  0
  5  6  1  0
  6  7  2  0
  7  8  1  0
  8  9  2  0
  9 10  1  0
 10 11  2  0
 11 12  1  0
 11 13  1  0
 13 14  2  0
  7 15  1  0
 15 16  1  0
 16 17  1  0
 15 18  1  0
 18 19  2  0
 19 20  1  0
 20 21  2  0
 21 22  1  0
 22 23  2  0
 21 24  1  0
 24 25  1  0
 24 26  2  0
 24 27  2  0
 16  5  2  0
 23 18  1  0
 14  8  1  0
  1 28  1  0
  1 29  1  0
  1 30  1  0
  2 31  1  0
  2 32  1  0
  6 33  1  0
  9 34  1  0
 10 35  1  0
 13 36  1  0
 14 37  1  0
 17 38  1  0
 17 39  1  0
 17 40  1  0
 19 41  1  0
 20 42  1  0
 22 43  1  0
 23 44  1  0
 25 45  1  0
 25 46  1  0
M  END
>  <_MoleculeID>  (173) 
smi18

>  <_InputIndex>  (173) 
18

>  <_InputSMILES>  (173) 
CCC(=O)c1cc(-c2ccc(Cl)cc2)n(c1C)-c1ccc(cc1)S(N)(=O)=O

>  <_InputInChIKey>  (173) 
ABACVOXFUHDKNZ-UHFFFAOYSA-N

>  <_SMILES>  (173) 
CCC(=O)c1cc(-c2ccc(Cl)cc2)n(-c2ccc(S(N)(=O)=O)cc2)c1C

>  <_InChIKey>  (173) 
ABACVOXFUHDKNZ-UHFFFAOYSA-N

$$$$
smi18_conf8
     RDKit          3D

 46 48  0  0  0  0  0  0  0  0999 V2000
   -2.2609    0.1298   -1.1734 C   0  0  0  0  0  0  0  0  0  0  0  0
   -0.7352    0.0656   -1.3302 C   0  0  0  0  0  0  0  0  0  0  0  0
    0.0000    0.0000    0.0000 C   0  0  0  0  0  0  0  0  0  0  0  0
   -0.5943    0.0000    1.0752 O   0  0  0  0  0  0  0  0  0  0  0  0
    1.4310   -0.0000    0.0000 C   0  0  0  0  0  0  0  0  0  0  0  0
    2.2730    0.0037    1.1307 C   0  0  0  0  0  0  0  0  0  0  0  0
    3.5866   -0.0140    0.6932 C   0  0  0  0  0  0  0  0  0  0  0  0
    4.8422   -0.0296    1.3898 C   0  0  0  0  0  0  0  0  0  0  0  0
    5.0070   -0.8033    2.5414 C   0  0  0  0  0  0  0  0  0  0  0  0
    6.2307   -0.8246    3.2268 C   0  0  0  0  0  0  0  0  0  0  0  0
    7.3355   -0.0749    2.7944 C   0  0  0  0  0  0  0  0  0  0  0  0
    8.8405   -0.0941    3.6290 Cl  0  0  0  0  0  0  0  0  0  0  0  0
    7.1289    0.7039    1.6394 C   0  0  0  0  0  0  0  0  0  0  0  0
    5.9140    0.7415    0.9415 C   0  0  0  0  0  0  0  0  0  0  0  0
    3.5511    0.0139   -0.6990 N   0  0  0  0  0  0  0  0  0  0  0  0
    2.2300   -0.0000   -1.1270 C   0  0  0  0  0  0  0  0  0  0  0  0
    1.9140   -0.0007   -2.5637 C   0  0  0  0  0  0  0  0  0  0  0  0
    4.6644    0.0178   -1.5279 C   0  0  0  0  0  0  0  0  0  0  0  0
    4.8874    1.0747   -2.4141 C   0  0  0  0  0  0  0  0  0  0  0  0
    6.0106    1.0864   -3.2543 C   0  0  0  0  0  0  0  0  0  0  0  0
    6.9527    0.0461   -3.2467 C   0  0  0  0  0  0  0  0  0  0  0  0
    6.6883   -1.0087   -2.3519 C   0  0  0  0  0  0  0  0  0  0  0  0
    5.5711   -1.0412   -1.5062 C   0  0  0  0  0  0  0  0  0  0  0  0
    8.3727    0.0516   -4.3034 S   0  0  0  0  0  6  0  0  0  0  0  0
    7.7521   -0.7528   -5.6828 N   0  0  0  0  0  0  0  0  0  0  0  0
    9.3859   -0.7829   -3.6873 O   0  0  0  0  0  0  0  0  0  0  0  0
    8.6628    1.4306   -4.6445 O   0  0  0  0  0  0  0  0  0  0  0  0
   -2.6292   -0.7373   -0.6160 H   0  0  0  0  0  0  0  0  0  0  0  0
   -2.7439    0.1441   -2.1548 H   0  0  0  0  0  0  0  0  0  0  0  0
   -2.5538    1.0311   -0.6257 H   0  0  0  0  0  0  0  0  0  0  0  0
   -0.3849    0.9088   -1.9313 H   0  0  0  0  0  0  0  0  0  0  0  0
   -0.4413   -0.8199   -1.9091 H   0  0  0  0  0  0  0  0  0  0  0  0
    1.9570    0.0028    2.1655 H   0  0  0  0  0  0  0  0  0  0  0  0
    4.1817   -1.3994    2.9239 H   0  0  0  0  0  0  0  0  0  0  0  0
    6.2876   -1.4443    4.1182 H   0  0  0  0  0  0  0  0  0  0  0  0
    7.9570    1.3079    1.2706 H   0  0  0  0  0  0  0  0  0  0  0  0
    5.8023    1.3599    0.0539 H   0  0  0  0  0  0  0  0  0  0  0  0
    1.8433   -1.0259   -2.9391 H   0  0  0  0  0  0  0  0  0  0  0  0
    2.6803    0.5322   -3.1346 H   0  0  0  0  0  0  0  0  0  0  0  0
    0.9569    0.4954   -2.7556 H   0  0  0  0  0  0  0  0  0  0  0  0
    4.1860    1.9043   -2.4652 H   0  0  0  0  0  0  0  0  0  0  0  0
    6.1195    1.9369   -3.9227 H   0  0  0  0  0  0  0  0  0  0  0  0
    7.3893   -1.8418   -2.3165 H   0  0  0  0  0  0  0  0  0  0  0  0
    5.4091   -1.8791   -0.8321 H   0  0  0  0  0  0  0  0  0  0  0  0
    6.9129   -1.3312   -5.5409 H   0  0  0  0  0  0  0  0  0  0  0  0
    7.6575   -0.1771   -6.5303 H   0  0  0  0  0  0  0  0  0  0  0  0
  1  2  1  0
  2  3  1  0
  3  4  2  0
  3  5  1  0
  5  6  1  0
  6  7  2  0
  7  8  1  0
  8  9  2  0
  9 10  1  0
 10 11  2  0
 11 12  1  0
 11 13  1  0
 13 14  2  0
  7 15  1  0
 15 16  1  0
 16 17  1  0
 15 18  1  0
 18 19  2  0
 19 20  1  0
 20 21  2  0
 21 22  1  0
 22 23  2  0
 21 24  1  0
 24 25  1  0
 24 26  2  0
 24 27  2  0
 16  5  2  0
 23 18  1  0
 14  8  1  0
  1 28  1  0
  1 29  1  0
  1 30  1  0
  2 31  1  0
  2 32  1  0
  6 33  1  0
  9 34  1  0
 10 35  1  0
 13 36  1  0
 14 37  1  0
 17 38  1  0
 17 39  1  0
 17 40  1  0
 19 41  1  0
 20 42  1  0
 22 43  1  0
 23 44  1  0
 25 45  1  0
 25 46  1  0
M  END
>  <_MoleculeID>  (174) 
smi18

>  <_InputIndex>  (174) 
18

>  <_InputSMILES>  (174) 
CCC(=O)c1cc(-c2ccc(Cl)cc2)n(c1C)-c1ccc(cc1)S(N)(=O)=O

>  <_InputInChIKey>  (174) 
ABACVOXFUHDKNZ-UHFFFAOYSA-N

>  <_SMILES>  (174) 
CCC(=O)c1cc(-c2ccc(Cl)cc2)n(-c2ccc(S(N)(=O)=O)cc2)c1C

>  <_InChIKey>  (174) 
ABACVOXFUHDKNZ-UHFFFAOYSA-N

$$$$
smi18_conf9
     RDKit          3D

 46 48  0  0  0  0  0  0  0  0999 V2000
   -2.2609    0.1298   -1.1734 C   0  0  0  0  0  0  0  0  0  0  0  0
   -0.7352    0.0656   -1.3302 C   0  0  0  0  0  0  0  0  0  0  0  0
    0.0000    0.0000    0.0000 C   0  0  0  0  0  0  0  0  0  0  0  0
   -0.5943    0.0000    1.0752 O   0  0  0  0  0  0  0  0  0  0  0  0
    1.4310   -0.0000    0.0000 C   0  0  0  0  0  0  0  0  0  0  0  0
    2.2730    0.0037    1.1307 C   0  0  0  0  0  0  0  0  0  0  0  0
    3.5866   -0.0140    0.6932 C   0  0  0  0  0  0  0  0  0  0  0  0
    4.8422   -0.0296    1.3898 C   0  0  0  0  0  0  0  0  0  0  0  0
    5.9007   -0.8172    0.9301 C   0  0  0  0  0  0  0  0  0  0  0  0
    7.1306   -0.8369    1.6044 C   0  0  0  0  0  0  0  0  0  0  0  0
    7.3531   -0.0765    2.7628 C   0  0  0  0  0  0  0  0  0  0  0  0
    8.8582   -0.0948    3.5971 Cl  0  0  0  0  0  0  0  0  0  0  0  0
    6.2602    0.6937    3.2052 C   0  0  0  0  0  0  0  0  0  0  0  0
    5.0226    0.7255    2.5480 C   0  0  0  0  0  0  0  0  0  0  0  0
    3.5511    0.0139   -0.6990 N   0  0  0  0  0  0  0  0  0  0  0  0
    2.2300   -0.0000   -1.1270 C   0  0  0  0  0  0  0  0  0  0  0  0
    1.9140   -0.0007   -2.5637 C   0  0  0  0  0  0  0  0  0  0  0  0
    4.6644    0.0178   -1.5279 C   0  0  0  0  0  0  0  0  0  0  0  0
    5.2483    1.2222   -1.9287 C   0  0  0  0  0  0  0  0  0  0  0  0
    6.3741    1.2344   -2.7654 C   0  0  0  0  0  0  0  0  0  0  0  0
    6.9597    0.0495   -3.2373 C   0  0  0  0  0  0  0  0  0  0  0  0
    6.3365   -1.1443   -2.8251 C   0  0  0  0  0  0  0  0  0  0  0  0
    5.2099   -1.1785   -1.9921 C   0  0  0  0  0  0  0  0  0  0  0  0
    8.3798    0.0546   -4.2939 S   0  0  0  0  0  6  0  0  0  0  0  0
    7.6351    0.0966   -5.8361 N   0  0  0  0  0  0  0  0  0  0  0  0
    9.0565   -1.2175   -4.1318 O   0  0  0  0  0  0  0  0  0  0  0  0
    9.0897    1.2992   -4.0718 O   0  0  0  0  0  0  0  0  0  0  0  0
   -2.6292   -0.7373   -0.6160 H   0  0  0  0  0  0  0  0  0  0  0  0
   -2.7439    0.1441   -2.1548 H   0  0  0  0  0  0  0  0  0  0  0  0
   -2.5538    1.0311   -0.6257 H   0  0  0  0  0  0  0  0  0  0  0  0
   -0.3849    0.9088   -1.9313 H   0  0  0  0  0  0  0  0  0  0  0  0
   -0.4413   -0.8199   -1.9091 H   0  0  0  0  0  0  0  0  0  0  0  0
    1.9570    0.0028    2.1655 H   0  0  0  0  0  0  0  0  0  0  0  0
    5.7811   -1.4306    0.0400 H   0  0  0  0  0  0  0  0  0  0  0  0
    7.9089   -1.4760    1.1948 H   0  0  0  0  0  0  0  0  0  0  0  0
    6.3847    1.2951    4.1048 H   0  0  0  0  0  0  0  0  0  0  0  0
    4.2071    1.3360    2.9289 H   0  0  0  0  0  0  0  0  0  0  0  0
    1.8433   -1.0259   -2.9391 H   0  0  0  0  0  0  0  0  0  0  0  0
    2.6803    0.5322   -3.1346 H   0  0  0  0  0  0  0  0  0  0  0  0
    0.9569    0.4954   -2.7556 H   0  0  0  0  0  0  0  0  0  0  0  0
    4.8316    2.1704   -1.5969 H   0  0  0  0  0  0  0  0  0  0  0  0
    6.7739    2.2067   -3.0425 H   0  0  0  0  0  0  0  0  0  0  0  0
    6.7528   -2.0890   -3.1726 H   0  0  0  0  0  0  0  0  0  0  0  0
    4.7629   -2.1263   -1.7012 H   0  0  0  0  0  0  0  0  0  0  0  0
    6.6541   -0.2108   -5.8832 H   0  0  0  0  0  0  0  0  0  0  0  0
    7.7702    0.9635   -6.3736 H   0  0  0  0  0  0  0  0  0  0  0  0
  1  2  1  0
  2  3  1  0
  3  4  2  0
  3  5  1  0
  5  6  1  0
  6  7  2  0
  7  8  1  0
  8  9  2  0
  9 10  1  0
 10 11  2  0
 11 12  1  0
 11 13  1  0
 13 14  2  0
  7 15  1  0
 15 16  1  0
 16 17  1  0
 15 18  1  0
 18 19  2  0
 19 20  1  0
 20 21  2  0
 21 22  1  0
 22 23  2  0
 21 24  1  0
 24 25  1  0
 24 26  2  0
 24 27  2  0
 16  5  2  0
 23 18  1  0
 14  8  1  0
  1 28  1  0
  1 29  1  0
  1 30  1  0
  2 31  1  0
  2 32  1  0
  6 33  1  0
  9 34  1  0
 10 35  1  0
 13 36  1  0
 14 37  1  0
 17 38  1  0
 17 39  1  0
 17 40  1  0
 19 41  1  0
 20 42  1  0
 22 43  1  0
 23 44  1  0
 25 45  1  0
 25 46  1  0
M  END
>  <_MoleculeID>  (175) 
smi18

>  <_InputIndex>  (175) 
18

>  <_InputSMILES>  (175) 
CCC(=O)c1cc(-c2ccc(Cl)cc2)n(c1C)-c1ccc(cc1)S(N)(=O)=O

>  <_InputInChIKey>  (175) 
ABACVOXFUHDKNZ-UHFFFAOYSA-N

>  <_SMILES>  (175) 
CCC(=O)c1cc(-c2ccc(Cl)cc2)n(-c2ccc(S(N)(=O)=O)cc2)c1C

>  <_InChIKey>  (175) 
ABACVOXFUHDKNZ-UHFFFAOYSA-N

$$$$
smi19_conf0
     RDKit          3D

 63 66  0  0  0  0  0  0  0  0999 V2000
   -2.4472   -0.0000    3.0081 C   0  0  0  0  0  0  0  0  0  0  0  0
   -1.9885    0.0000    1.5586 C   0  0  0  0  0  0  0  0  0  0  0  0
   -0.4659    0.0000    1.4540 C   0  0  0  0  0  0  0  0  0  0  0  0
    0.0000    0.0000    0.0000 C   0  0  0  0  0  0  0  0  0  0  0  0
    1.4180   -0.0000    0.0000 O   0  0  0  0  0  0  0  0  0  0  0  0
    2.0477   -0.0000   -1.2234 C   0  0  0  0  0  0  0  0  0  0  0  0
    1.3040   -0.0195   -2.4060 C   0  0  0  0  0  0  0  0  0  0  0  0
    1.9386   -0.0186   -3.6570 C   0  0  0  0  0  0  0  0  0  0  0  0
    3.3366   -0.0013   -3.7789 C   0  0  0  0  0  0  0  0  0  0  0  0
    4.0538    0.0035   -2.5669 C   0  0  0  0  0  0  0  0  0  0  0  0
    3.4396   -0.0000   -1.3071 C   0  0  0  0  0  0  0  0  0  0  0  0
    4.3845    0.0048    0.1313 Cl  0  0  0  0  0  0  0  0  0  0  0  0
    3.9937   -0.0008   -5.0558 C   0  0  0  0  0  0  0  0  0  0  0  0
    3.3841    0.5821   -6.1521 C   0  0  0  0  0  0  0  0  0  0  0  0
    3.9274    0.6249   -7.3889 N   0  0  0  0  0  0  0  0  0  0  0  0
    5.1511    0.0687   -7.5595 C   0  0  0  0  0  0  0  0  0  0  0  0
    5.8250   -0.5537   -6.5069 C   0  0  0  0  0  0  0  0  0  0  0  0
    5.2479   -0.5825   -5.2312 C   0  0  0  0  0  0  0  0  0  0  0  0
    7.1246   -1.1710   -6.7365 C   0  0  0  0  0  0  0  0  0  0  0  0
    7.4880   -1.4846   -7.8682 O   0  0  0  0  0  0  0  0  0  0  0  0
    7.9103   -1.3343   -5.6051 N   0  0  0  0  0  0  0  0  0  0  0  0
    9.2326   -1.8913   -5.6621 C   0  0  0  0  0  0  0  0  0  0  0  0
    9.3034   -3.3679   -5.5101 C   0  0  0  0  0  0  0  0  0  0  0  0
    9.2380   -4.2188   -6.6119 C   0  0  0  0  0  0  0  0  0  0  0  0
    9.3207   -5.5999   -6.3950 C   0  0  0  0  0  0  0  0  0  0  0  0
    9.4436   -6.0919   -5.0941 C   0  0  0  0  0  0  0  0  0  0  0  0
    9.5170   -5.2623   -4.0252 N   0  0  0  0  0  0  0  0  0  0  0  0
    9.4412   -3.9326   -4.2550 C   0  0  0  0  0  0  0  0  0  0  0  0
    9.5152   -3.1285   -3.1138 N   0  0  0  0  0  0  0  0  0  0  0  0
   10.7241   -3.2177   -2.2833 C   0  0  0  0  0  0  0  0  0  0  0  0
   10.8537   -1.9613   -1.4298 C   0  0  0  0  0  0  0  0  0  0  0  0
    9.6631   -1.7486   -0.6711 O   0  0  0  0  0  0  0  0  0  0  0  0
    8.5481   -1.5305   -1.5353 C   0  0  0  0  0  0  0  0  0  0  0  0
    8.2900   -2.7629   -2.3952 C   0  0  0  0  0  0  0  0  0  0  0  0
   -3.5404    0.0005    3.0596 H   0  0  0  0  0  0  0  0  0  0  0  0
   -2.0818    0.8871    3.5352 H   0  0  0  0  0  0  0  0  0  0  0  0
   -2.0825   -0.8876    3.5350 H   0  0  0  0  0  0  0  0  0  0  0  0
   -2.3966   -0.8823    1.0523 H   0  0  0  0  0  0  0  0  0  0  0  0
   -2.3966    0.8824    1.0524 H   0  0  0  0  0  0  0  0  0  0  0  0
   -0.0497    0.8756    1.9681 H   0  0  0  0  0  0  0  0  0  0  0  0
   -0.0498   -0.8754    1.9684 H   0  0  0  0  0  0  0  0  0  0  0  0
   -0.3761   -0.8988   -0.5035 H   0  0  0  0  0  0  0  0  0  0  0  0
   -0.3761    0.8988   -0.5034 H   0  0  0  0  0  0  0  0  0  0  0  0
    0.2172   -0.0390   -2.3696 H   0  0  0  0  0  0  0  0  0  0  0  0
    1.2991   -0.0397   -4.5360 H   0  0  0  0  0  0  0  0  0  0  0  0
    5.1421    0.0101   -2.6127 H   0  0  0  0  0  0  0  0  0  0  0  0
    2.4067    1.0448   -6.0625 H   0  0  0  0  0  0  0  0  0  0  0  0
    5.5662    0.1179   -8.5583 H   0  0  0  0  0  0  0  0  0  0  0  0
    5.7614   -1.0569   -4.4020 H   0  0  0  0  0  0  0  0  0  0  0  0
    7.5912   -0.9938   -4.7049 H   0  0  0  0  0  0  0  0  0  0  0  0
    9.8896   -1.3893   -4.9417 H   0  0  0  0  0  0  0  0  0  0  0  0
    9.6493   -1.6448   -6.6470 H   0  0  0  0  0  0  0  0  0  0  0  0
    9.1364   -3.8213   -7.6159 H   0  0  0  0  0  0  0  0  0  0  0  0
    9.2898   -6.2875   -7.2360 H   0  0  0  0  0  0  0  0  0  0  0  0
    9.5039   -7.1524   -4.8842 H   0  0  0  0  0  0  0  0  0  0  0  0
   11.6431   -3.3301   -2.8660 H   0  0  0  0  0  0  0  0  0  0  0  0
   10.6330   -4.0974   -1.6339 H   0  0  0  0  0  0  0  0  0  0  0  0
   11.0559   -1.0774   -2.0469 H   0  0  0  0  0  0  0  0  0  0  0  0
   11.6845   -2.0719   -0.7259 H   0  0  0  0  0  0  0  0  0  0  0  0
    8.7349   -0.6438   -2.1532 H   0  0  0  0  0  0  0  0  0  0  0  0
    7.6739   -1.3210   -0.9108 H   0  0  0  0  0  0  0  0  0  0  0  0
    7.9825   -3.6012   -1.7581 H   0  0  0  0  0  0  0  0  0  0  0  0
    7.4732   -2.5264   -3.0869 H   0  0  0  0  0  0  0  0  0  0  0  0
  1  2  1  0
  2  3  1  0
  3  4  1  0
  4  5  1  0
  5  6  1  0
  6  7  2  0
  7  8  1  0
  8  9  2  0
  9 10  1  0
 10 11  2  0
 11 12  1  0
  9 13  1  0
 13 14  2  0
 14 15  1  0
 15 16  2  0
 16 17  1  0
 17 18  2  0
 17 19  1  0
 19 20  2  0
 19 21  1  0
 21 22  1  0
 22 23  1  0
 23 24  2  0
 24 25  1  0
 25 26  2  0
 26 27  1  0
 27 28  2  0
 28 29  1  0
 29 30  1  0
 30 31  1  0
 31 32  1  0
 32 33  1  0
 33 34  1  0
 11  6  1  0
 18 13  1  0
 28 23  1  0
 34 29  1  0
  1 35  1  0
  1 36  1  0
  1 37  1  0
  2 38  1  0
  2 39  1  0
  3 40  1  0
  3 41  1  0
  4 42  1  0
  4 43  1  0
  7 44  1  0
  8 45  1  0
 10 46  1  0
 14 47  1  0
 16 48  1  0
 18 49  1  0
 21 50  1  0
 22 51  1  0
 22 52  1  0
 24 53  1  0
 25 54  1  0
 26 55  1  0
 30 56  1  0
 30 57  1  0
 31 58  1  0
 31 59  1  0
 33 60  1  0
 33 61  1  0
 34 62  1  0
 34 63  1  0
M  END
>  <_MoleculeID>  (176) 
smi19

>  <_InputIndex>  (176) 
19

>  <_InputSMILES>  (176) 
CCCCOc1ccc(cc1Cl)-c1cncc(c1)C(=O)NCc1cccnc1N1CCOCC1

>  <_InputInChIKey>  (176) 
JPJGFWKHSMUKFO-UHFFFAOYSA-N

>  <_SMILES>  (176) 
CCCCOc1ccc(-c2cncc(C(=O)NCc3cccnc3N3CCOCC3)c2)cc1Cl

>  <_InChIKey>  (176) 
JPJGFWKHSMUKFO-UHFFFAOYSA-N

$$$$
smi19_conf1
     RDKit          3D

 63 66  0  0  0  0  0  0  0  0999 V2000
   -2.4472   -0.0000    3.0081 C   0  0  0  0  0  0  0  0  0  0  0  0
   -1.9885    0.0000    1.5586 C   0  0  0  0  0  0  0  0  0  0  0  0
   -0.4659    0.0000    1.4540 C   0  0  0  0  0  0  0  0  0  0  0  0
    0.0000    0.0000    0.0000 C   0  0  0  0  0  0  0  0  0  0  0  0
    1.4180   -0.0000    0.0000 O   0  0  0  0  0  0  0  0  0  0  0  0
    2.0477   -0.0000   -1.2234 C   0  0  0  0  0  0  0  0  0  0  0  0
    1.3040   -0.0195   -2.4060 C   0  0  0  0  0  0  0  0  0  0  0  0
    1.9386   -0.0186   -3.6570 C   0  0  0  0  0  0  0  0  0  0  0  0
    3.3366   -0.0013   -3.7789 C   0  0  0  0  0  0  0  0  0  0  0  0
    4.0538    0.0035   -2.5669 C   0  0  0  0  0  0  0  0  0  0  0  0
    3.4396    0.0000   -1.3071 C   0  0  0  0  0  0  0  0  0  0  0  0
    4.3845    0.0048    0.1313 Cl  0  0  0  0  0  0  0  0  0  0  0  0
    3.9937   -0.0008   -5.0558 C   0  0  0  0  0  0  0  0  0  0  0  0
    3.3841    0.5821   -6.1521 C   0  0  0  0  0  0  0  0  0  0  0  0
    3.9274    0.6249   -7.3889 N   0  0  0  0  0  0  0  0  0  0  0  0
    5.1511    0.0687   -7.5595 C   0  0  0  0  0  0  0  0  0  0  0  0
    5.8250   -0.5537   -6.5069 C   0  0  0  0  0  0  0  0  0  0  0  0
    5.2479   -0.5825   -5.2312 C   0  0  0  0  0  0  0  0  0  0  0  0
    7.1246   -1.1710   -6.7365 C   0  0  0  0  0  0  0  0  0  0  0  0
    7.8947   -1.3959   -5.8051 O   0  0  0  0  0  0  0  0  0  0  0  0
    7.3944   -1.5091   -8.0544 N   0  0  0  0  0  0  0  0  0  0  0  0
    8.6133   -2.1593   -8.4465 C   0  0  0  0  0  0  0  0  0  0  0  0
    8.7366   -2.4479   -9.8989 C   0  0  0  0  0  0  0  0  0  0  0  0
    9.3115   -1.5324  -10.7785 C   0  0  0  0  0  0  0  0  0  0  0  0
    9.4038   -1.8752  -12.1332 C   0  0  0  0  0  0  0  0  0  0  0  0
    8.9046   -3.1024  -12.5742 C   0  0  0  0  0  0  0  0  0  0  0  0
    8.3550   -3.9951  -11.7156 N   0  0  0  0  0  0  0  0  0  0  0  0
    8.2800   -3.6489  -10.4113 C   0  0  0  0  0  0  0  0  0  0  0  0
    7.6971   -4.6065   -9.5762 N   0  0  0  0  0  0  0  0  0  0  0  0
    6.3115   -5.0109   -9.8511 C   0  0  0  0  0  0  0  0  0  0  0  0
    5.6996   -5.6286   -8.5988 C   0  0  0  0  0  0  0  0  0  0  0  0
    6.5148   -6.6988   -8.1209 O   0  0  0  0  0  0  0  0  0  0  0  0
    7.8036   -6.2178   -7.7396 C   0  0  0  0  0  0  0  0  0  0  0  0
    8.5329   -5.6326   -8.9440 C   0  0  0  0  0  0  0  0  0  0  0  0
   -3.5404    0.0005    3.0596 H   0  0  0  0  0  0  0  0  0  0  0  0
   -2.0818    0.8871    3.5352 H   0  0  0  0  0  0  0  0  0  0  0  0
   -2.0825   -0.8876    3.5350 H   0  0  0  0  0  0  0  0  0  0  0  0
   -2.3966   -0.8823    1.0523 H   0  0  0  0  0  0  0  0  0  0  0  0
   -2.3966    0.8824    1.0524 H   0  0  0  0  0  0  0  0  0  0  0  0
   -0.0497    0.8756    1.9681 H   0  0  0  0  0  0  0  0  0  0  0  0
   -0.0498   -0.8754    1.9684 H   0  0  0  0  0  0  0  0  0  0  0  0
   -0.3761   -0.8988   -0.5035 H   0  0  0  0  0  0  0  0  0  0  0  0
   -0.3761    0.8988   -0.5034 H   0  0  0  0  0  0  0  0  0  0  0  0
    0.2172   -0.0390   -2.3696 H   0  0  0  0  0  0  0  0  0  0  0  0
    1.2991   -0.0397   -4.5360 H   0  0  0  0  0  0  0  0  0  0  0  0
    5.1421    0.0101   -2.6127 H   0  0  0  0  0  0  0  0  0  0  0  0
    2.4067    1.0448   -6.0625 H   0  0  0  0  0  0  0  0  0  0  0  0
    5.5662    0.1179   -8.5583 H   0  0  0  0  0  0  0  0  0  0  0  0
    5.7614   -1.0569   -4.4020 H   0  0  0  0  0  0  0  0  0  0  0  0
    6.6952   -1.3659   -8.7747 H   0  0  0  0  0  0  0  0  0  0  0  0
    8.7710   -3.0660   -7.8500 H   0  0  0  0  0  0  0  0  0  0  0  0
    9.4417   -1.4926   -8.1752 H   0  0  0  0  0  0  0  0  0  0  0  0
    9.6893   -0.5805  -10.4215 H   0  0  0  0  0  0  0  0  0  0  0  0
    9.8626   -1.1889  -12.8401 H   0  0  0  0  0  0  0  0  0  0  0  0
    8.9510   -3.4015  -13.6138 H   0  0  0  0  0  0  0  0  0  0  0  0
    5.6726   -4.1817  -10.1690 H   0  0  0  0  0  0  0  0  0  0  0  0
    6.3217   -5.7514  -10.6606 H   0  0  0  0  0  0  0  0  0  0  0  0
    5.5746   -4.8824   -7.8047 H   0  0  0  0  0  0  0  0  0  0  0  0
    4.7106   -6.0373   -8.8288 H   0  0  0  0  0  0  0  0  0  0  0  0
    7.6927   -5.4755   -6.9398 H   0  0  0  0  0  0  0  0  0  0  0  0
    8.3709   -7.0609   -7.3329 H   0  0  0  0  0  0  0  0  0  0  0  0
    8.7414   -6.4261   -9.6721 H   0  0  0  0  0  0  0  0  0  0  0  0
    9.4841   -5.2164   -8.5926 H   0  0  0  0  0  0  0  0  0  0  0  0
  1  2  1  0
  2  3  1  0
  3  4  1  0
  4  5  1  0
  5  6  1  0
  6  7  2  0
  7  8  1  0
  8  9  2  0
  9 10  1  0
 10 11  2  0
 11 12  1  0
  9 13  1  0
 13 14  2  0
 14 15  1  0
 15 16  2  0
 16 17  1  0
 17 18  2  0
 17 19  1  0
 19 20  2  0
 19 21  1  0
 21 22  1  0
 22 23  1  0
 23 24  2  0
 24 25  1  0
 25 26  2  0
 26 27  1  0
 27 28  2  0
 28 29  1  0
 29 30  1  0
 30 31  1  0
 31 32  1  0
 32 33  1  0
 33 34  1  0
 11  6  1  0
 18 13  1  0
 28 23  1  0
 34 29  1  0
  1 35  1  0
  1 36  1  0
  1 37  1  0
  2 38  1  0
  2 39  1  0
  3 40  1  0
  3 41  1  0
  4 42  1  0
  4 43  1  0
  7 44  1  0
  8 45  1  0
 10 46  1  0
 14 47  1  0
 16 48  1  0
 18 49  1  0
 21 50  1  0
 22 51  1  0
 22 52  1  0
 24 53  1  0
 25 54  1  0
 26 55  1  0
 30 56  1  0
 30 57  1  0
 31 58  1  0
 31 59  1  0
 33 60  1  0
 33 61  1  0
 34 62  1  0
 34 63  1  0
M  END
>  <_MoleculeID>  (177) 
smi19

>  <_InputIndex>  (177) 
19

>  <_InputSMILES>  (177) 
CCCCOc1ccc(cc1Cl)-c1cncc(c1)C(=O)NCc1cccnc1N1CCOCC1

>  <_InputInChIKey>  (177) 
JPJGFWKHSMUKFO-UHFFFAOYSA-N

>  <_SMILES>  (177) 
CCCCOc1ccc(-c2cncc(C(=O)NCc3cccnc3N3CCOCC3)c2)cc1Cl

>  <_InChIKey>  (177) 
JPJGFWKHSMUKFO-UHFFFAOYSA-N

$$$$
smi19_conf2
     RDKit          3D

 63 66  0  0  0  0  0  0  0  0999 V2000
   -2.4472   -0.0000    3.0081 C   0  0  0  0  0  0  0  0  0  0  0  0
   -1.9885    0.0000    1.5586 C   0  0  0  0  0  0  0  0  0  0  0  0
   -0.4659    0.0000    1.4540 C   0  0  0  0  0  0  0  0  0  0  0  0
    0.0000    0.0000    0.0000 C   0  0  0  0  0  0  0  0  0  0  0  0
    1.4180   -0.0000    0.0000 O   0  0  0  0  0  0  0  0  0  0  0  0
    2.0477   -0.0000   -1.2234 C   0  0  0  0  0  0  0  0  0  0  0  0
    1.3040   -0.0195   -2.4060 C   0  0  0  0  0  0  0  0  0  0  0  0
    1.9386   -0.0186   -3.6570 C   0  0  0  0  0  0  0  0  0  0  0  0
    3.3366   -0.0013   -3.7789 C   0  0  0  0  0  0  0  0  0  0  0  0
    4.0538    0.0035   -2.5669 C   0  0  0  0  0  0  0  0  0  0  0  0
    3.4396    0.0000   -1.3071 C   0  0  0  0  0  0  0  0  0  0  0  0
    4.3845    0.0048    0.1313 Cl  0  0  0  0  0  0  0  0  0  0  0  0
    3.9937   -0.0008   -5.0558 C   0  0  0  0  0  0  0  0  0  0  0  0
    5.2248    0.6119   -5.2050 C   0  0  0  0  0  0  0  0  0  0  0  0
    5.9111    0.6629   -6.3681 N   0  0  0  0  0  0  0  0  0  0  0  0
    5.3591    0.0666   -7.4525 C   0  0  0  0  0  0  0  0  0  0  0  0
    4.1123   -0.5586   -7.3882 C   0  0  0  0  0  0  0  0  0  0  0  0
    3.4193   -0.6059   -6.1721 C   0  0  0  0  0  0  0  0  0  0  0  0
    3.5352   -1.1593   -8.5835 C   0  0  0  0  0  0  0  0  0  0  0  0
    2.6506   -2.0092   -8.5038 O   0  0  0  0  0  0  0  0  0  0  0  0
    4.0285   -0.6751   -9.7861 N   0  0  0  0  0  0  0  0  0  0  0  0
    3.5401   -1.1328  -11.0566 C   0  0  0  0  0  0  0  0  0  0  0  0
    4.2566   -2.3044  -11.6242 C   0  0  0  0  0  0  0  0  0  0  0  0
    3.8508   -3.6097  -11.3523 C   0  0  0  0  0  0  0  0  0  0  0  0
    4.5672   -4.6657  -11.9292 C   0  0  0  0  0  0  0  0  0  0  0  0
    5.6731   -4.3943  -12.7373 C   0  0  0  0  0  0  0  0  0  0  0  0
    6.0599   -3.1242  -13.0083 N   0  0  0  0  0  0  0  0  0  0  0  0
    5.3526   -2.1184  -12.4472 C   0  0  0  0  0  0  0  0  0  0  0  0
    5.8033   -0.8318  -12.7571 N   0  0  0  0  0  0  0  0  0  0  0  0
    5.8228   -0.4287  -14.1700 C   0  0  0  0  0  0  0  0  0  0  0  0
    5.8366    1.0925  -14.2690 C   0  0  0  0  0  0  0  0  0  0  0  0
    6.9216    1.6318  -13.5139 O   0  0  0  0  0  0  0  0  0  0  0  0
    6.7723    1.3236  -12.1282 C   0  0  0  0  0  0  0  0  0  0  0  0
    6.8104   -0.1850  -11.9096 C   0  0  0  0  0  0  0  0  0  0  0  0
   -3.5404    0.0005    3.0596 H   0  0  0  0  0  0  0  0  0  0  0  0
   -2.0818    0.8871    3.5352 H   0  0  0  0  0  0  0  0  0  0  0  0
   -2.0825   -0.8876    3.5350 H   0  0  0  0  0  0  0  0  0  0  0  0
   -2.3966   -0.8823    1.0523 H   0  0  0  0  0  0  0  0  0  0  0  0
   -2.3966    0.8824    1.0524 H   0  0  0  0  0  0  0  0  0  0  0  0
   -0.0497    0.8756    1.9681 H   0  0  0  0  0  0  0  0  0  0  0  0
   -0.0498   -0.8754    1.9684 H   0  0  0  0  0  0  0  0  0  0  0  0
   -0.3761   -0.8988   -0.5035 H   0  0  0  0  0  0  0  0  0  0  0  0
   -0.3761    0.8988   -0.5034 H   0  0  0  0  0  0  0  0  0  0  0  0
    0.2172   -0.0390   -2.3696 H   0  0  0  0  0  0  0  0  0  0  0  0
    1.2991   -0.0397   -4.5360 H   0  0  0  0  0  0  0  0  0  0  0  0
    5.1421    0.0101   -2.6127 H   0  0  0  0  0  0  0  0  0  0  0  0
    5.7082    1.0975   -4.3636 H   0  0  0  0  0  0  0  0  0  0  0  0
    5.9291    0.1187   -8.3716 H   0  0  0  0  0  0  0  0  0  0  0  0
    2.4526   -1.0930   -6.1046 H   0  0  0  0  0  0  0  0  0  0  0  0
    4.7081    0.0773   -9.7966 H   0  0  0  0  0  0  0  0  0  0  0  0
    3.5093   -0.3044  -11.7745 H   0  0  0  0  0  0  0  0  0  0  0  0
    2.4922   -1.4278  -10.9174 H   0  0  0  0  0  0  0  0  0  0  0  0
    2.9931   -3.8043  -10.7176 H   0  0  0  0  0  0  0  0  0  0  0  0
    4.2641   -5.6937  -11.7494 H   0  0  0  0  0  0  0  0  0  0  0  0
    6.2568   -5.1825  -13.1961 H   0  0  0  0  0  0  0  0  0  0  0  0
    4.9650   -0.7994  -14.7387 H   0  0  0  0  0  0  0  0  0  0  0  0
    6.7298   -0.8369  -14.6333 H   0  0  0  0  0  0  0  0  0  0  0  0
    4.8937    1.5252  -13.9131 H   0  0  0  0  0  0  0  0  0  0  0  0
    5.9693    1.3978  -15.3117 H   0  0  0  0  0  0  0  0  0  0  0  0
    5.8356    1.7577  -11.7579 H   0  0  0  0  0  0  0  0  0  0  0  0
    7.5954    1.8003  -11.5865 H   0  0  0  0  0  0  0  0  0  0  0  0
    7.8030   -0.5720  -12.1706 H   0  0  0  0  0  0  0  0  0  0  0  0
    6.6246   -0.3765  -10.8464 H   0  0  0  0  0  0  0  0  0  0  0  0
  1  2  1  0
  2  3  1  0
  3  4  1  0
  4  5  1  0
  5  6  1  0
  6  7  2  0
  7  8  1  0
  8  9  2  0
  9 10  1  0
 10 11  2  0
 11 12  1  0
  9 13  1  0
 13 14  2  0
 14 15  1  0
 15 16  2  0
 16 17  1  0
 17 18  2  0
 17 19  1  0
 19 20  2  0
 19 21  1  0
 21 22  1  0
 22 23  1  0
 23 24  2  0
 24 25  1  0
 25 26  2  0
 26 27  1  0
 27 28  2  0
 28 29  1  0
 29 30  1  0
 30 31  1  0
 31 32  1  0
 32 33  1  0
 33 34  1  0
 11  6  1  0
 18 13  1  0
 28 23  1  0
 34 29  1  0
  1 35  1  0
  1 36  1  0
  1 37  1  0
  2 38  1  0
  2 39  1  0
  3 40  1  0
  3 41  1  0
  4 42  1  0
  4 43  1  0
  7 44  1  0
  8 45  1  0
 10 46  1  0
 14 47  1  0
 16 48  1  0
 18 49  1  0
 21 50  1  0
 22 51  1  0
 22 52  1  0
 24 53  1  0
 25 54  1  0
 26 55  1  0
 30 56  1  0
 30 57  1  0
 31 58  1  0
 31 59  1  0
 33 60  1  0
 33 61  1  0
 34 62  1  0
 34 63  1  0
M  END
>  <_MoleculeID>  (178) 
smi19

>  <_InputIndex>  (178) 
19

>  <_InputSMILES>  (178) 
CCCCOc1ccc(cc1Cl)-c1cncc(c1)C(=O)NCc1cccnc1N1CCOCC1

>  <_InputInChIKey>  (178) 
JPJGFWKHSMUKFO-UHFFFAOYSA-N

>  <_SMILES>  (178) 
CCCCOc1ccc(-c2cncc(C(=O)NCc3cccnc3N3CCOCC3)c2)cc1Cl

>  <_InChIKey>  (178) 
JPJGFWKHSMUKFO-UHFFFAOYSA-N

$$$$
smi19_conf3
     RDKit          3D

 63 66  0  0  0  0  0  0  0  0999 V2000
   -0.4295    1.2233    3.6546 C   0  0  0  0  0  0  0  0  0  0  0  0
    0.0371    1.2280    2.2077 C   0  0  0  0  0  0  0  0  0  0  0  0
   -0.4659    0.0000    1.4540 C   0  0  0  0  0  0  0  0  0  0  0  0
    0.0000    0.0000    0.0000 C   0  0  0  0  0  0  0  0  0  0  0  0
    1.4180   -0.0000    0.0000 O   0  0  0  0  0  0  0  0  0  0  0  0
    2.0477   -0.0000   -1.2234 C   0  0  0  0  0  0  0  0  0  0  0  0
    1.3040   -0.0195   -2.4060 C   0  0  0  0  0  0  0  0  0  0  0  0
    1.9386   -0.0186   -3.6570 C   0  0  0  0  0  0  0  0  0  0  0  0
    3.3366   -0.0013   -3.7789 C   0  0  0  0  0  0  0  0  0  0  0  0
    4.0538    0.0035   -2.5669 C   0  0  0  0  0  0  0  0  0  0  0  0
    3.4396    0.0000   -1.3071 C   0  0  0  0  0  0  0  0  0  0  0  0
    4.3845    0.0048    0.1313 Cl  0  0  0  0  0  0  0  0  0  0  0  0
    3.9937   -0.0008   -5.0558 C   0  0  0  0  0  0  0  0  0  0  0  0
    3.3996   -0.6130   -6.1446 C   0  0  0  0  0  0  0  0  0  0  0  0
    3.9471   -0.6632   -7.3793 N   0  0  0  0  0  0  0  0  0  0  0  0
    5.1501   -0.0664   -7.5601 C   0  0  0  0  0  0  0  0  0  0  0  0
    5.8223    0.5584   -6.5078 C   0  0  0  0  0  0  0  0  0  0  0  0
    5.2357    0.6048   -5.2370 C   0  0  0  0  0  0  0  0  0  0  0  0
    7.1303    1.1596   -6.7327 C   0  0  0  0  0  0  0  0  0  0  0  0
    7.8220    0.8344   -7.6955 O   0  0  0  0  0  0  0  0  0  0  0  0
    7.5006    2.1312   -5.8146 N   0  0  0  0  0  0  0  0  0  0  0  0
    8.7407    2.8484   -5.9135 C   0  0  0  0  0  0  0  0  0  0  0  0
    8.9762    3.8537   -4.8448 C   0  0  0  0  0  0  0  0  0  0  0  0
    8.5563    5.1756   -4.9812 C   0  0  0  0  0  0  0  0  0  0  0  0
    8.8034    6.0668   -3.9295 C   0  0  0  0  0  0  0  0  0  0  0  0
    9.4763    5.6246   -2.7888 C   0  0  0  0  0  0  0  0  0  0  0  0
    9.8749    4.3365   -2.6542 N   0  0  0  0  0  0  0  0  0  0  0  0
    9.6225    3.4901   -3.6771 C   0  0  0  0  0  0  0  0  0  0  0  0
   10.0634    2.1777   -3.4834 N   0  0  0  0  0  0  0  0  0  0  0  0
   11.5002    1.9564   -3.2691 C   0  0  0  0  0  0  0  0  0  0  0  0
   11.8490    0.5072   -3.5885 C   0  0  0  0  0  0  0  0  0  0  0  0
   11.0234   -0.3821   -2.8362 O   0  0  0  0  0  0  0  0  0  0  0  0
    9.6507   -0.2148   -3.1904 C   0  0  0  0  0  0  0  0  0  0  0  0
    9.1791    1.1945   -2.8492 C   0  0  0  0  0  0  0  0  0  0  0  0
   -0.0576    2.1110    4.1757 H   0  0  0  0  0  0  0  0  0  0  0  0
   -0.0593    0.3390    4.1833 H   0  0  0  0  0  0  0  0  0  0  0  0
   -1.5226    1.2270    3.7145 H   0  0  0  0  0  0  0  0  0  0  0  0
   -0.3228    2.1396    1.7168 H   0  0  0  0  0  0  0  0  0  0  0  0
    1.1326    1.2572    2.1833 H   0  0  0  0  0  0  0  0  0  0  0  0
   -0.1178   -0.9169    1.9462 H   0  0  0  0  0  0  0  0  0  0  0  0
   -1.5620   -0.0415    1.4838 H   0  0  0  0  0  0  0  0  0  0  0  0
   -0.3761   -0.8988   -0.5035 H   0  0  0  0  0  0  0  0  0  0  0  0
   -0.3761    0.8988   -0.5034 H   0  0  0  0  0  0  0  0  0  0  0  0
    0.2172   -0.0390   -2.3696 H   0  0  0  0  0  0  0  0  0  0  0  0
    1.2991   -0.0397   -4.5360 H   0  0  0  0  0  0  0  0  0  0  0  0
    5.1421    0.0101   -2.6127 H   0  0  0  0  0  0  0  0  0  0  0  0
    2.4341   -1.0989   -6.0492 H   0  0  0  0  0  0  0  0  0  0  0  0
    5.5667   -0.1177   -8.5582 H   0  0  0  0  0  0  0  0  0  0  0  0
    5.7426    1.0915   -4.4109 H   0  0  0  0  0  0  0  0  0  0  0  0
    6.8621    2.4123   -5.0788 H   0  0  0  0  0  0  0  0  0  0  0  0
    8.8424    3.2996   -6.9078 H   0  0  0  0  0  0  0  0  0  0  0  0
    9.5512    2.1110   -5.8515 H   0  0  0  0  0  0  0  0  0  0  0  0
    8.0400    5.5053   -5.8762 H   0  0  0  0  0  0  0  0  0  0  0  0
    8.4725    7.0996   -3.9998 H   0  0  0  0  0  0  0  0  0  0  0  0
    9.6921    6.2837   -1.9573 H   0  0  0  0  0  0  0  0  0  0  0  0
   12.1348    2.6028   -3.8826 H   0  0  0  0  0  0  0  0  0  0  0  0
   11.7292    2.1680   -2.2172 H   0  0  0  0  0  0  0  0  0  0  0  0
   11.7344    0.2944   -4.6583 H   0  0  0  0  0  0  0  0  0  0  0  0
   12.8907    0.3057   -3.3196 H   0  0  0  0  0  0  0  0  0  0  0  0
    9.5214   -0.4323   -4.2576 H   0  0  0  0  0  0  0  0  0  0  0  0
    9.0660   -0.9505   -2.6291 H   0  0  0  0  0  0  0  0  0  0  0  0
    9.2008    1.3391   -1.7621 H   0  0  0  0  0  0  0  0  0  0  0  0
    8.1455    1.2982   -3.1991 H   0  0  0  0  0  0  0  0  0  0  0  0
  1  2  1  0
  2  3  1  0
  3  4  1  0
  4  5  1  0
  5  6  1  0
  6  7  2  0
  7  8  1  0
  8  9  2  0
  9 10  1  0
 10 11  2  0
 11 12  1  0
  9 13  1  0
 13 14  2  0
 14 15  1  0
 15 16  2  0
 16 17  1  0
 17 18  2  0
 17 19  1  0
 19 20  2  0
 19 21  1  0
 21 22  1  0
 22 23  1  0
 23 24  2  0
 24 25  1  0
 25 26  2  0
 26 27  1  0
 27 28  2  0
 28 29  1  0
 29 30  1  0
 30 31  1  0
 31 32  1  0
 32 33  1  0
 33 34  1  0
 11  6  1  0
 18 13  1  0
 28 23  1  0
 34 29  1  0
  1 35  1  0
  1 36  1  0
  1 37  1  0
  2 38  1  0
  2 39  1  0
  3 40  1  0
  3 41  1  0
  4 42  1  0
  4 43  1  0
  7 44  1  0
  8 45  1  0
 10 46  1  0
 14 47  1  0
 16 48  1  0
 18 49  1  0
 21 50  1  0
 22 51  1  0
 22 52  1  0
 24 53  1  0
 25 54  1  0
 26 55  1  0
 30 56  1  0
 30 57  1  0
 31 58  1  0
 31 59  1  0
 33 60  1  0
 33 61  1  0
 34 62  1  0
 34 63  1  0
M  END
>  <_MoleculeID>  (179) 
smi19

>  <_InputIndex>  (179) 
19

>  <_InputSMILES>  (179) 
CCCCOc1ccc(cc1Cl)-c1cncc(c1)C(=O)NCc1cccnc1N1CCOCC1

>  <_InputInChIKey>  (179) 
JPJGFWKHSMUKFO-UHFFFAOYSA-N

>  <_SMILES>  (179) 
CCCCOc1ccc(-c2cncc(C(=O)NCc3cccnc3N3CCOCC3)c2)cc1Cl

>  <_InChIKey>  (179) 
JPJGFWKHSMUKFO-UHFFFAOYSA-N

$$$$
smi19_conf4
     RDKit          3D

 63 66  0  0  0  0  0  0  0  0999 V2000
   -0.4295   -1.2233    3.6546 C   0  0  0  0  0  0  0  0  0  0  0  0
    0.0371   -1.2280    2.2077 C   0  0  0  0  0  0  0  0  0  0  0  0
   -0.4659    0.0000    1.4540 C   0  0  0  0  0  0  0  0  0  0  0  0
    0.0000    0.0000    0.0000 C   0  0  0  0  0  0  0  0  0  0  0  0
    1.4180   -0.0000    0.0000 O   0  0  0  0  0  0  0  0  0  0  0  0
    2.0477   -0.0000   -1.2234 C   0  0  0  0  0  0  0  0  0  0  0  0
    1.3040   -0.0195   -2.4060 C   0  0  0  0  0  0  0  0  0  0  0  0
    1.9386   -0.0186   -3.6570 C   0  0  0  0  0  0  0  0  0  0  0  0
    3.3366   -0.0013   -3.7789 C   0  0  0  0  0  0  0  0  0  0  0  0
    4.0538    0.0035   -2.5669 C   0  0  0  0  0  0  0  0  0  0  0  0
    3.4396    0.0000   -1.3071 C   0  0  0  0  0  0  0  0  0  0  0  0
    4.3845    0.0048    0.1313 Cl  0  0  0  0  0  0  0  0  0  0  0  0
    3.9937   -0.0008   -5.0558 C   0  0  0  0  0  0  0  0  0  0  0  0
    5.2248    0.6119   -5.2050 C   0  0  0  0  0  0  0  0  0  0  0  0
    5.9111    0.6629   -6.3681 N   0  0  0  0  0  0  0  0  0  0  0  0
    5.3591    0.0666   -7.4525 C   0  0  0  0  0  0  0  0  0  0  0  0
    4.1123   -0.5586   -7.3882 C   0  0  0  0  0  0  0  0  0  0  0  0
    3.4193   -0.6059   -6.1721 C   0  0  0  0  0  0  0  0  0  0  0  0
    3.5352   -1.1593   -8.5835 C   0  0  0  0  0  0  0  0  0  0  0  0
    2.6506   -2.0092   -8.5038 O   0  0  0  0  0  0  0  0  0  0  0  0
    4.0285   -0.6751   -9.7861 N   0  0  0  0  0  0  0  0  0  0  0  0
    3.5401   -1.1328  -11.0566 C   0  0  0  0  0  0  0  0  0  0  0  0
    4.1808   -0.5073  -12.2425 C   0  0  0  0  0  0  0  0  0  0  0  0
    5.3156   -1.0587  -12.8345 C   0  0  0  0  0  0  0  0  0  0  0  0
    5.8608   -0.4209  -13.9558 C   0  0  0  0  0  0  0  0  0  0  0  0
    5.2773    0.7519  -14.4392 C   0  0  0  0  0  0  0  0  0  0  0  0
    4.1682    1.2807  -13.8680 N   0  0  0  0  0  0  0  0  0  0  0  0
    3.6532    0.6480  -12.7905 C   0  0  0  0  0  0  0  0  0  0  0  0
    2.5145    1.2442  -12.2408 N   0  0  0  0  0  0  0  0  0  0  0  0
    2.6284    2.6222  -11.7434 C   0  0  0  0  0  0  0  0  0  0  0  0
    1.5026    2.9053  -10.7553 C   0  0  0  0  0  0  0  0  0  0  0  0
    0.2351    2.6233  -11.3488 O   0  0  0  0  0  0  0  0  0  0  0  0
    0.1333    1.2394  -11.6837 C   0  0  0  0  0  0  0  0  0  0  0  0
    1.1831    0.8630  -12.7236 C   0  0  0  0  0  0  0  0  0  0  0  0
   -0.0584   -2.1115    4.1754 H   0  0  0  0  0  0  0  0  0  0  0  0
   -1.5226   -1.2262    3.7144 H   0  0  0  0  0  0  0  0  0  0  0  0
   -0.0586   -0.3394    4.1836 H   0  0  0  0  0  0  0  0  0  0  0  0
    1.1325   -1.2573    2.1831 H   0  0  0  0  0  0  0  0  0  0  0  0
   -0.3230   -2.1396    1.7169 H   0  0  0  0  0  0  0  0  0  0  0  0
   -1.5621    0.0413    1.4835 H   0  0  0  0  0  0  0  0  0  0  0  0
   -0.1182    0.9168    1.9465 H   0  0  0  0  0  0  0  0  0  0  0  0
   -0.3761   -0.8988   -0.5035 H   0  0  0  0  0  0  0  0  0  0  0  0
   -0.3761    0.8988   -0.5034 H   0  0  0  0  0  0  0  0  0  0  0  0
    0.2172   -0.0390   -2.3696 H   0  0  0  0  0  0  0  0  0  0  0  0
    1.2991   -0.0397   -4.5360 H   0  0  0  0  0  0  0  0  0  0  0  0
    5.1421    0.0101   -2.6127 H   0  0  0  0  0  0  0  0  0  0  0  0
    5.7082    1.0975   -4.3636 H   0  0  0  0  0  0  0  0  0  0  0  0
    5.9291    0.1187   -8.3716 H   0  0  0  0  0  0  0  0  0  0  0  0
    2.4526   -1.0930   -6.1046 H   0  0  0  0  0  0  0  0  0  0  0  0
    4.7081    0.0773   -9.7966 H   0  0  0  0  0  0  0  0  0  0  0  0
    2.4486   -1.0375  -11.1026 H   0  0  0  0  0  0  0  0  0  0  0  0
    3.7341   -2.2115  -11.1124 H   0  0  0  0  0  0  0  0  0  0  0  0
    5.7608   -1.9671  -12.4435 H   0  0  0  0  0  0  0  0  0  0  0  0
    6.7352   -0.8369  -14.4492 H   0  0  0  0  0  0  0  0  0  0  0  0
    5.6724    1.2781  -15.2991 H   0  0  0  0  0  0  0  0  0  0  0  0
    3.5799    2.8255  -11.2433 H   0  0  0  0  0  0  0  0  0  0  0  0
    2.5499    3.3056  -12.5981 H   0  0  0  0  0  0  0  0  0  0  0  0
    1.6162    2.3134   -9.8389 H   0  0  0  0  0  0  0  0  0  0  0  0
    1.5120    3.9623  -10.4711 H   0  0  0  0  0  0  0  0  0  0  0  0
    0.2379    0.6363  -10.7736 H   0  0  0  0  0  0  0  0  0  0  0  0
   -0.8697    1.0629  -12.0848 H   0  0  0  0  0  0  0  0  0  0  0  0
    0.9773    1.3881  -13.6644 H   0  0  0  0  0  0  0  0  0  0  0  0
    1.1125   -0.2167  -12.8986 H   0  0  0  0  0  0  0  0  0  0  0  0
  1  2  1  0
  2  3  1  0
  3  4  1  0
  4  5  1  0
  5  6  1  0
  6  7  2  0
  7  8  1  0
  8  9  2  0
  9 10  1  0
 10 11  2  0
 11 12  1  0
  9 13  1  0
 13 14  2  0
 14 15  1  0
 15 16  2  0
 16 17  1  0
 17 18  2  0
 17 19  1  0
 19 20  2  0
 19 21  1  0
 21 22  1  0
 22 23  1  0
 23 24  2  0
 24 25  1  0
 25 26  2  0
 26 27  1  0
 27 28  2  0
 28 29  1  0
 29 30  1  0
 30 31  1  0
 31 32  1  0
 32 33  1  0
 33 34  1  0
 11  6  1  0
 18 13  1  0
 28 23  1  0
 34 29  1  0
  1 35  1  0
  1 36  1  0
  1 37  1  0
  2 38  1  0
  2 39  1  0
  3 40  1  0
  3 41  1  0
  4 42  1  0
  4 43  1  0
  7 44  1  0
  8 45  1  0
 10 46  1  0
 14 47  1  0
 16 48  1  0
 18 49  1  0
 21 50  1  0
 22 51  1  0
 22 52  1  0
 24 53  1  0
 25 54  1  0
 26 55  1  0
 30 56  1  0
 30 57  1  0
 31 58  1  0
 31 59  1  0
 33 60  1  0
 33 61  1  0
 34 62  1  0
 34 63  1  0
M  END
>  <_MoleculeID>  (180) 
smi19

>  <_InputIndex>  (180) 
19

>  <_InputSMILES>  (180) 
CCCCOc1ccc(cc1Cl)-c1cncc(c1)C(=O)NCc1cccnc1N1CCOCC1

>  <_InputInChIKey>  (180) 
JPJGFWKHSMUKFO-UHFFFAOYSA-N

>  <_SMILES>  (180) 
CCCCOc1ccc(-c2cncc(C(=O)NCc3cccnc3N3CCOCC3)c2)cc1Cl

>  <_InChIKey>  (180) 
JPJGFWKHSMUKFO-UHFFFAOYSA-N

$$$$
smi19_conf5
     RDKit          3D

 63 66  0  0  0  0  0  0  0  0999 V2000
   -0.4295    1.2233    3.6546 C   0  0  0  0  0  0  0  0  0  0  0  0
    0.0371    1.2280    2.2077 C   0  0  0  0  0  0  0  0  0  0  0  0
   -0.4659    0.0000    1.4540 C   0  0  0  0  0  0  0  0  0  0  0  0
    0.0000    0.0000    0.0000 C   0  0  0  0  0  0  0  0  0  0  0  0
    1.4180   -0.0000    0.0000 O   0  0  0  0  0  0  0  0  0  0  0  0
    2.0477   -0.0000   -1.2234 C   0  0  0  0  0  0  0  0  0  0  0  0
    1.3040   -0.0195   -2.4060 C   0  0  0  0  0  0  0  0  0  0  0  0
    1.9386   -0.0186   -3.6570 C   0  0  0  0  0  0  0  0  0  0  0  0
    3.3366   -0.0013   -3.7789 C   0  0  0  0  0  0  0  0  0  0  0  0
    4.0538    0.0035   -2.5669 C   0  0  0  0  0  0  0  0  0  0  0  0
    3.4396    0.0000   -1.3071 C   0  0  0  0  0  0  0  0  0  0  0  0
    4.3845    0.0048    0.1313 Cl  0  0  0  0  0  0  0  0  0  0  0  0
    3.9937   -0.0008   -5.0558 C   0  0  0  0  0  0  0  0  0  0  0  0
    5.2248    0.6119   -5.2050 C   0  0  0  0  0  0  0  0  0  0  0  0
    5.9111    0.6629   -6.3681 N   0  0  0  0  0  0  0  0  0  0  0  0
    5.3591    0.0666   -7.4525 C   0  0  0  0  0  0  0  0  0  0  0  0
    4.1123   -0.5586   -7.3882 C   0  0  0  0  0  0  0  0  0  0  0  0
    3.4193   -0.6059   -6.1721 C   0  0  0  0  0  0  0  0  0  0  0  0
    3.5352   -1.1593   -8.5835 C   0  0  0  0  0  0  0  0  0  0  0  0
    2.6506   -2.0092   -8.5038 O   0  0  0  0  0  0  0  0  0  0  0  0
    4.0285   -0.6751   -9.7861 N   0  0  0  0  0  0  0  0  0  0  0  0
    3.5401   -1.1328  -11.0566 C   0  0  0  0  0  0  0  0  0  0  0  0
    4.2566   -2.3044  -11.6242 C   0  0  0  0  0  0  0  0  0  0  0  0
    3.8508   -3.6097  -11.3523 C   0  0  0  0  0  0  0  0  0  0  0  0
    4.5672   -4.6657  -11.9292 C   0  0  0  0  0  0  0  0  0  0  0  0
    5.6731   -4.3943  -12.7373 C   0  0  0  0  0  0  0  0  0  0  0  0
    6.0599   -3.1242  -13.0083 N   0  0  0  0  0  0  0  0  0  0  0  0
    5.3526   -2.1184  -12.4472 C   0  0  0  0  0  0  0  0  0  0  0  0
    5.8033   -0.8318  -12.7571 N   0  0  0  0  0  0  0  0  0  0  0  0
    5.8228   -0.4287  -14.1700 C   0  0  0  0  0  0  0  0  0  0  0  0
    5.8366    1.0925  -14.2690 C   0  0  0  0  0  0  0  0  0  0  0  0
    6.9216    1.6318  -13.5139 O   0  0  0  0  0  0  0  0  0  0  0  0
    6.7723    1.3236  -12.1282 C   0  0  0  0  0  0  0  0  0  0  0  0
    6.8104   -0.1850  -11.9096 C   0  0  0  0  0  0  0  0  0  0  0  0
   -0.0576    2.1110    4.1757 H   0  0  0  0  0  0  0  0  0  0  0  0
   -0.0593    0.3390    4.1833 H   0  0  0  0  0  0  0  0  0  0  0  0
   -1.5226    1.2270    3.7145 H   0  0  0  0  0  0  0  0  0  0  0  0
   -0.3228    2.1396    1.7168 H   0  0  0  0  0  0  0  0  0  0  0  0
    1.1326    1.2572    2.1833 H   0  0  0  0  0  0  0  0  0  0  0  0
   -0.1178   -0.9169    1.9462 H   0  0  0  0  0  0  0  0  0  0  0  0
   -1.5620   -0.0415    1.4838 H   0  0  0  0  0  0  0  0  0  0  0  0
   -0.3761   -0.8988   -0.5035 H   0  0  0  0  0  0  0  0  0  0  0  0
   -0.3761    0.8988   -0.5034 H   0  0  0  0  0  0  0  0  0  0  0  0
    0.2172   -0.0390   -2.3696 H   0  0  0  0  0  0  0  0  0  0  0  0
    1.2991   -0.0397   -4.5360 H   0  0  0  0  0  0  0  0  0  0  0  0
    5.1421    0.0101   -2.6127 H   0  0  0  0  0  0  0  0  0  0  0  0
    5.7082    1.0975   -4.3636 H   0  0  0  0  0  0  0  0  0  0  0  0
    5.9291    0.1187   -8.3716 H   0  0  0  0  0  0  0  0  0  0  0  0
    2.4526   -1.0930   -6.1046 H   0  0  0  0  0  0  0  0  0  0  0  0
    4.7081    0.0773   -9.7966 H   0  0  0  0  0  0  0  0  0  0  0  0
    3.5093   -0.3044  -11.7745 H   0  0  0  0  0  0  0  0  0  0  0  0
    2.4922   -1.4278  -10.9174 H   0  0  0  0  0  0  0  0  0  0  0  0
    2.9931   -3.8043  -10.7176 H   0  0  0  0  0  0  0  0  0  0  0  0
    4.2641   -5.6937  -11.7494 H   0  0  0  0  0  0  0  0  0  0  0  0
    6.2568   -5.1825  -13.1961 H   0  0  0  0  0  0  0  0  0  0  0  0
    4.9650   -0.7994  -14.7387 H   0  0  0  0  0  0  0  0  0  0  0  0
    6.7298   -0.8369  -14.6333 H   0  0  0  0  0  0  0  0  0  0  0  0
    4.8937    1.5252  -13.9131 H   0  0  0  0  0  0  0  0  0  0  0  0
    5.9693    1.3978  -15.3117 H   0  0  0  0  0  0  0  0  0  0  0  0
    5.8356    1.7577  -11.7579 H   0  0  0  0  0  0  0  0  0  0  0  0
    7.5954    1.8003  -11.5865 H   0  0  0  0  0  0  0  0  0  0  0  0
    7.8030   -0.5720  -12.1706 H   0  0  0  0  0  0  0  0  0  0  0  0
    6.6246   -0.3765  -10.8464 H   0  0  0  0  0  0  0  0  0  0  0  0
  1  2  1  0
  2  3  1  0
  3  4  1  0
  4  5  1  0
  5  6  1  0
  6  7  2  0
  7  8  1  0
  8  9  2  0
  9 10  1  0
 10 11  2  0
 11 12  1  0
  9 13  1  0
 13 14  2  0
 14 15  1  0
 15 16  2  0
 16 17  1  0
 17 18  2  0
 17 19  1  0
 19 20  2  0
 19 21  1  0
 21 22  1  0
 22 23  1  0
 23 24  2  0
 24 25  1  0
 25 26  2  0
 26 27  1  0
 27 28  2  0
 28 29  1  0
 29 30  1  0
 30 31  1  0
 31 32  1  0
 32 33  1  0
 33 34  1  0
 11  6  1  0
 18 13  1  0
 28 23  1  0
 34 29  1  0
  1 35  1  0
  1 36  1  0
  1 37  1  0
  2 38  1  0
  2 39  1  0
  3 40  1  0
  3 41  1  0
  4 42  1  0
  4 43  1  0
  7 44  1  0
  8 45  1  0
 10 46  1  0
 14 47  1  0
 16 48  1  0
 18 49  1  0
 21 50  1  0
 22 51  1  0
 22 52  1  0
 24 53  1  0
 25 54  1  0
 26 55  1  0
 30 56  1  0
 30 57  1  0
 31 58  1  0
 31 59  1  0
 33 60  1  0
 33 61  1  0
 34 62  1  0
 34 63  1  0
M  END
>  <_MoleculeID>  (181) 
smi19

>  <_InputIndex>  (181) 
19

>  <_InputSMILES>  (181) 
CCCCOc1ccc(cc1Cl)-c1cncc(c1)C(=O)NCc1cccnc1N1CCOCC1

>  <_InputInChIKey>  (181) 
JPJGFWKHSMUKFO-UHFFFAOYSA-N

>  <_SMILES>  (181) 
CCCCOc1ccc(-c2cncc(C(=O)NCc3cccnc3N3CCOCC3)c2)cc1Cl

>  <_InChIKey>  (181) 
JPJGFWKHSMUKFO-UHFFFAOYSA-N

$$$$
smi19_conf6
     RDKit          3D

 63 66  0  0  0  0  0  0  0  0999 V2000
   -2.4472   -0.0000    3.0081 C   0  0  0  0  0  0  0  0  0  0  0  0
   -1.9885    0.0000    1.5586 C   0  0  0  0  0  0  0  0  0  0  0  0
   -0.4659    0.0000    1.4540 C   0  0  0  0  0  0  0  0  0  0  0  0
    0.0000    0.0000    0.0000 C   0  0  0  0  0  0  0  0  0  0  0  0
    1.4180   -0.0000    0.0000 O   0  0  0  0  0  0  0  0  0  0  0  0
    2.0477   -0.0000   -1.2234 C   0  0  0  0  0  0  0  0  0  0  0  0
    1.3040   -0.0195   -2.4060 C   0  0  0  0  0  0  0  0  0  0  0  0
    1.9386   -0.0186   -3.6570 C   0  0  0  0  0  0  0  0  0  0  0  0
    3.3366   -0.0013   -3.7789 C   0  0  0  0  0  0  0  0  0  0  0  0
    4.0538    0.0035   -2.5669 C   0  0  0  0  0  0  0  0  0  0  0  0
    3.4396    0.0000   -1.3071 C   0  0  0  0  0  0  0  0  0  0  0  0
    4.3845    0.0048    0.1313 Cl  0  0  0  0  0  0  0  0  0  0  0  0
    3.9937   -0.0008   -5.0558 C   0  0  0  0  0  0  0  0  0  0  0  0
    3.3996   -0.6130   -6.1446 C   0  0  0  0  0  0  0  0  0  0  0  0
    3.9471   -0.6632   -7.3793 N   0  0  0  0  0  0  0  0  0  0  0  0
    5.1501   -0.0664   -7.5601 C   0  0  0  0  0  0  0  0  0  0  0  0
    5.8223    0.5584   -6.5078 C   0  0  0  0  0  0  0  0  0  0  0  0
    5.2357    0.6048   -5.2370 C   0  0  0  0  0  0  0  0  0  0  0  0
    7.1303    1.1596   -6.7327 C   0  0  0  0  0  0  0  0  0  0  0  0
    7.5060    1.4587   -7.8643 O   0  0  0  0  0  0  0  0  0  0  0  0
    7.8782    1.3944   -5.5883 N   0  0  0  0  0  0  0  0  0  0  0  0
    9.1722    2.0154   -5.6306 C   0  0  0  0  0  0  0  0  0  0  0  0
    9.1659    3.4974   -5.5208 C   0  0  0  0  0  0  0  0  0  0  0  0
    9.0788    4.3121   -6.6482 C   0  0  0  0  0  0  0  0  0  0  0  0
    9.0685    5.7010   -6.4693 C   0  0  0  0  0  0  0  0  0  0  0  0
    9.1664    6.2359   -5.1832 C   0  0  0  0  0  0  0  0  0  0  0  0
    9.2410    5.4417   -4.0878 N   0  0  0  0  0  0  0  0  0  0  0  0
    9.2438    4.1039   -4.2801 C   0  0  0  0  0  0  0  0  0  0  0  0
    9.3300    3.3374   -3.1142 N   0  0  0  0  0  0  0  0  0  0  0  0
   10.5119    3.5119   -2.2588 C   0  0  0  0  0  0  0  0  0  0  0  0
   10.6836    2.2885   -1.3656 C   0  0  0  0  0  0  0  0  0  0  0  0
    9.4869    2.0369   -0.6288 O   0  0  0  0  0  0  0  0  0  0  0  0
    8.4061    1.7375   -1.5120 C   0  0  0  0  0  0  0  0  0  0  0  0
    8.1074    2.9302   -2.4139 C   0  0  0  0  0  0  0  0  0  0  0  0
   -3.5404    0.0005    3.0596 H   0  0  0  0  0  0  0  0  0  0  0  0
   -2.0818    0.8871    3.5352 H   0  0  0  0  0  0  0  0  0  0  0  0
   -2.0825   -0.8876    3.5350 H   0  0  0  0  0  0  0  0  0  0  0  0
   -2.3966   -0.8823    1.0523 H   0  0  0  0  0  0  0  0  0  0  0  0
   -2.3966    0.8824    1.0524 H   0  0  0  0  0  0  0  0  0  0  0  0
   -0.0497    0.8756    1.9681 H   0  0  0  0  0  0  0  0  0  0  0  0
   -0.0498   -0.8754    1.9684 H   0  0  0  0  0  0  0  0  0  0  0  0
   -0.3761   -0.8988   -0.5035 H   0  0  0  0  0  0  0  0  0  0  0  0
   -0.3761    0.8988   -0.5034 H   0  0  0  0  0  0  0  0  0  0  0  0
    0.2172   -0.0390   -2.3696 H   0  0  0  0  0  0  0  0  0  0  0  0
    1.2991   -0.0397   -4.5360 H   0  0  0  0  0  0  0  0  0  0  0  0
    5.1421    0.0101   -2.6127 H   0  0  0  0  0  0  0  0  0  0  0  0
    2.4341   -1.0989   -6.0492 H   0  0  0  0  0  0  0  0  0  0  0  0
    5.5667   -0.1177   -8.5582 H   0  0  0  0  0  0  0  0  0  0  0  0
    5.7426    1.0915   -4.4109 H   0  0  0  0  0  0  0  0  0  0  0  0
    7.4922    1.1935   -4.6725 H   0  0  0  0  0  0  0  0  0  0  0  0
    9.7234    1.6888   -6.5206 H   0  0  0  0  0  0  0  0  0  0  0  0
    9.7489    1.6283   -4.7809 H   0  0  0  0  0  0  0  0  0  0  0  0
    9.0095    3.8814   -7.6412 H   0  0  0  0  0  0  0  0  0  0  0  0
    8.9842    6.3616   -7.3281 H   0  0  0  0  0  0  0  0  0  0  0  0
    9.1685    7.3036   -5.0036 H   0  0  0  0  0  0  0  0  0  0  0  0
   11.4383    3.6546   -2.8230 H   0  0  0  0  0  0  0  0  0  0  0  0
   10.3605    4.4039   -1.6381 H   0  0  0  0  0  0  0  0  0  0  0  0
   10.9454    1.3989   -1.9513 H   0  0  0  0  0  0  0  0  0  0  0  0
   11.4901    2.4615   -0.6461 H   0  0  0  0  0  0  0  0  0  0  0  0
    8.6526    0.8443   -2.0988 H   0  0  0  0  0  0  0  0  0  0  0  0
    7.5283    1.5015   -0.9021 H   0  0  0  0  0  0  0  0  0  0  0  0
    7.7423    3.7694   -1.8092 H   0  0  0  0  0  0  0  0  0  0  0  0
    7.3210    2.6326   -3.1171 H   0  0  0  0  0  0  0  0  0  0  0  0
  1  2  1  0
  2  3  1  0
  3  4  1  0
  4  5  1  0
  5  6  1  0
  6  7  2  0
  7  8  1  0
  8  9  2  0
  9 10  1  0
 10 11  2  0
 11 12  1  0
  9 13  1  0
 13 14  2  0
 14 15  1  0
 15 16  2  0
 16 17  1  0
 17 18  2  0
 17 19  1  0
 19 20  2  0
 19 21  1  0
 21 22  1  0
 22 23  1  0
 23 24  2  0
 24 25  1  0
 25 26  2  0
 26 27  1  0
 27 28  2  0
 28 29  1  0
 29 30  1  0
 30 31  1  0
 31 32  1  0
 32 33  1  0
 33 34  1  0
 11  6  1  0
 18 13  1  0
 28 23  1  0
 34 29  1  0
  1 35  1  0
  1 36  1  0
  1 37  1  0
  2 38  1  0
  2 39  1  0
  3 40  1  0
  3 41  1  0
  4 42  1  0
  4 43  1  0
  7 44  1  0
  8 45  1  0
 10 46  1  0
 14 47  1  0
 16 48  1  0
 18 49  1  0
 21 50  1  0
 22 51  1  0
 22 52  1  0
 24 53  1  0
 25 54  1  0
 26 55  1  0
 30 56  1  0
 30 57  1  0
 31 58  1  0
 31 59  1  0
 33 60  1  0
 33 61  1  0
 34 62  1  0
 34 63  1  0
M  END
>  <_MoleculeID>  (182) 
smi19

>  <_InputIndex>  (182) 
19

>  <_InputSMILES>  (182) 
CCCCOc1ccc(cc1Cl)-c1cncc(c1)C(=O)NCc1cccnc1N1CCOCC1

>  <_InputInChIKey>  (182) 
JPJGFWKHSMUKFO-UHFFFAOYSA-N

>  <_SMILES>  (182) 
CCCCOc1ccc(-c2cncc(C(=O)NCc3cccnc3N3CCOCC3)c2)cc1Cl

>  <_InChIKey>  (182) 
JPJGFWKHSMUKFO-UHFFFAOYSA-N

$$$$
smi19_conf7
     RDKit          3D

 63 66  0  0  0  0  0  0  0  0999 V2000
   -2.4472   -0.0000    3.0081 C   0  0  0  0  0  0  0  0  0  0  0  0
   -1.9885    0.0000    1.5586 C   0  0  0  0  0  0  0  0  0  0  0  0
   -0.4659    0.0000    1.4540 C   0  0  0  0  0  0  0  0  0  0  0  0
    0.0000    0.0000    0.0000 C   0  0  0  0  0  0  0  0  0  0  0  0
    1.4180   -0.0000    0.0000 O   0  0  0  0  0  0  0  0  0  0  0  0
    2.0477   -0.0000   -1.2234 C   0  0  0  0  0  0  0  0  0  0  0  0
    1.3040   -0.0195   -2.4060 C   0  0  0  0  0  0  0  0  0  0  0  0
    1.9386   -0.0186   -3.6570 C   0  0  0  0  0  0  0  0  0  0  0  0
    3.3366   -0.0013   -3.7789 C   0  0  0  0  0  0  0  0  0  0  0  0
    4.0538    0.0035   -2.5669 C   0  0  0  0  0  0  0  0  0  0  0  0
    3.4396    0.0000   -1.3071 C   0  0  0  0  0  0  0  0  0  0  0  0
    4.3845    0.0048    0.1313 Cl  0  0  0  0  0  0  0  0  0  0  0  0
    3.9937   -0.0008   -5.0558 C   0  0  0  0  0  0  0  0  0  0  0  0
    3.3841    0.5821   -6.1521 C   0  0  0  0  0  0  0  0  0  0  0  0
    3.9274    0.6249   -7.3889 N   0  0  0  0  0  0  0  0  0  0  0  0
    5.1511    0.0687   -7.5595 C   0  0  0  0  0  0  0  0  0  0  0  0
    5.8250   -0.5537   -6.5069 C   0  0  0  0  0  0  0  0  0  0  0  0
    5.2479   -0.5825   -5.2312 C   0  0  0  0  0  0  0  0  0  0  0  0
    7.1246   -1.1710   -6.7365 C   0  0  0  0  0  0  0  0  0  0  0  0
    7.8120   -0.8622   -7.7077 O   0  0  0  0  0  0  0  0  0  0  0  0
    7.5252   -2.0831   -5.7712 N   0  0  0  0  0  0  0  0  0  0  0  0
    8.7945   -2.7523   -5.8267 C   0  0  0  0  0  0  0  0  0  0  0  0
    8.7965   -4.0436   -6.5620 C   0  0  0  0  0  0  0  0  0  0  0  0
    9.0596   -4.1043   -7.9292 C   0  0  0  0  0  0  0  0  0  0  0  0
    9.0544   -5.3569   -8.5555 C   0  0  0  0  0  0  0  0  0  0  0  0
    8.7678   -6.5034   -7.8117 C   0  0  0  0  0  0  0  0  0  0  0  0
    8.5222   -6.4431   -6.4805 N   0  0  0  0  0  0  0  0  0  0  0  0
    8.5373   -5.2261   -5.8928 C   0  0  0  0  0  0  0  0  0  0  0  0
    8.2697   -5.2268   -4.5207 N   0  0  0  0  0  0  0  0  0  0  0  0
    9.1662   -5.9915   -3.6428 C   0  0  0  0  0  0  0  0  0  0  0  0
    9.0452   -5.4768   -2.2129 C   0  0  0  0  0  0  0  0  0  0  0  0
    7.6827   -5.5022   -1.7871 O   0  0  0  0  0  0  0  0  0  0  0  0
    6.8877   -4.6324   -2.5927 C   0  0  0  0  0  0  0  0  0  0  0  0
    6.8885   -5.0997   -4.0442 C   0  0  0  0  0  0  0  0  0  0  0  0
   -3.5404    0.0005    3.0596 H   0  0  0  0  0  0  0  0  0  0  0  0
   -2.0818    0.8871    3.5352 H   0  0  0  0  0  0  0  0  0  0  0  0
   -2.0825   -0.8876    3.5350 H   0  0  0  0  0  0  0  0  0  0  0  0
   -2.3966   -0.8823    1.0523 H   0  0  0  0  0  0  0  0  0  0  0  0
   -2.3966    0.8824    1.0524 H   0  0  0  0  0  0  0  0  0  0  0  0
   -0.0497    0.8756    1.9681 H   0  0  0  0  0  0  0  0  0  0  0  0
   -0.0498   -0.8754    1.9684 H   0  0  0  0  0  0  0  0  0  0  0  0
   -0.3761   -0.8988   -0.5035 H   0  0  0  0  0  0  0  0  0  0  0  0
   -0.3761    0.8988   -0.5034 H   0  0  0  0  0  0  0  0  0  0  0  0
    0.2172   -0.0390   -2.3696 H   0  0  0  0  0  0  0  0  0  0  0  0
    1.2991   -0.0397   -4.5360 H   0  0  0  0  0  0  0  0  0  0  0  0
    5.1421    0.0101   -2.6127 H   0  0  0  0  0  0  0  0  0  0  0  0
    2.4067    1.0448   -6.0625 H   0  0  0  0  0  0  0  0  0  0  0  0
    5.5662    0.1179   -8.5583 H   0  0  0  0  0  0  0  0  0  0  0  0
    5.7614   -1.0569   -4.4020 H   0  0  0  0  0  0  0  0  0  0  0  0
    6.9510   -2.2494   -4.9523 H   0  0  0  0  0  0  0  0  0  0  0  0
    9.2066   -2.8731   -4.8176 H   0  0  0  0  0  0  0  0  0  0  0  0
    9.4952   -2.0829   -6.3419 H   0  0  0  0  0  0  0  0  0  0  0  0
    9.2745   -3.2039   -8.4944 H   0  0  0  0  0  0  0  0  0  0  0  0
    9.2728   -5.4376   -9.6170 H   0  0  0  0  0  0  0  0  0  0  0  0
    8.7476   -7.4888   -8.2599 H   0  0  0  0  0  0  0  0  0  0  0  0
   10.2177   -5.9317   -3.9386 H   0  0  0  0  0  0  0  0  0  0  0  0
    8.8699   -7.0472   -3.6814 H   0  0  0  0  0  0  0  0  0  0  0  0
    9.4375   -4.4568   -2.1202 H   0  0  0  0  0  0  0  0  0  0  0  0
    9.6200   -6.1164   -1.5357 H   0  0  0  0  0  0  0  0  0  0  0  0
    7.2656   -3.6067   -2.5027 H   0  0  0  0  0  0  0  0  0  0  0  0
    5.8673   -4.6455   -2.1967 H   0  0  0  0  0  0  0  0  0  0  0  0
    6.3904   -6.0740   -4.1197 H   0  0  0  0  0  0  0  0  0  0  0  0
    6.3250   -4.3678   -4.6344 H   0  0  0  0  0  0  0  0  0  0  0  0
  1  2  1  0
  2  3  1  0
  3  4  1  0
  4  5  1  0
  5  6  1  0
  6  7  2  0
  7  8  1  0
  8  9  2  0
  9 10  1  0
 10 11  2  0
 11 12  1  0
  9 13  1  0
 13 14  2  0
 14 15  1  0
 15 16  2  0
 16 17  1  0
 17 18  2  0
 17 19  1  0
 19 20  2  0
 19 21  1  0
 21 22  1  0
 22 23  1  0
 23 24  2  0
 24 25  1  0
 25 26  2  0
 26 27  1  0
 27 28  2  0
 28 29  1  0
 29 30  1  0
 30 31  1  0
 31 32  1  0
 32 33  1  0
 33 34  1  0
 11  6  1  0
 18 13  1  0
 28 23  1  0
 34 29  1  0
  1 35  1  0
  1 36  1  0
  1 37  1  0
  2 38  1  0
  2 39  1  0
  3 40  1  0
  3 41  1  0
  4 42  1  0
  4 43  1  0
  7 44  1  0
  8 45  1  0
 10 46  1  0
 14 47  1  0
 16 48  1  0
 18 49  1  0
 21 50  1  0
 22 51  1  0
 22 52  1  0
 24 53  1  0
 25 54  1  0
 26 55  1  0
 30 56  1  0
 30 57  1  0
 31 58  1  0
 31 59  1  0
 33 60  1  0
 33 61  1  0
 34 62  1  0
 34 63  1  0
M  END
>  <_MoleculeID>  (183) 
smi19

>  <_InputIndex>  (183) 
19

>  <_InputSMILES>  (183) 
CCCCOc1ccc(cc1Cl)-c1cncc(c1)C(=O)NCc1cccnc1N1CCOCC1

>  <_InputInChIKey>  (183) 
JPJGFWKHSMUKFO-UHFFFAOYSA-N

>  <_SMILES>  (183) 
CCCCOc1ccc(-c2cncc(C(=O)NCc3cccnc3N3CCOCC3)c2)cc1Cl

>  <_InChIKey>  (183) 
JPJGFWKHSMUKFO-UHFFFAOYSA-N

$$$$
smi19_conf8
     RDKit          3D

 63 66  0  0  0  0  0  0  0  0999 V2000
   -0.4295   -1.2233    3.6546 C   0  0  0  0  0  0  0  0  0  0  0  0
    0.0371   -1.2280    2.2077 C   0  0  0  0  0  0  0  0  0  0  0  0
   -0.4659    0.0000    1.4540 C   0  0  0  0  0  0  0  0  0  0  0  0
    0.0000    0.0000    0.0000 C   0  0  0  0  0  0  0  0  0  0  0  0
    1.4180   -0.0000    0.0000 O   0  0  0  0  0  0  0  0  0  0  0  0
    2.0477   -0.0000   -1.2234 C   0  0  0  0  0  0  0  0  0  0  0  0
    1.3040   -0.0195   -2.4060 C   0  0  0  0  0  0  0  0  0  0  0  0
    1.9386   -0.0186   -3.6570 C   0  0  0  0  0  0  0  0  0  0  0  0
    3.3366   -0.0013   -3.7789 C   0  0  0  0  0  0  0  0  0  0  0  0
    4.0538    0.0035   -2.5669 C   0  0  0  0  0  0  0  0  0  0  0  0
    3.4396   -0.0000   -1.3071 C   0  0  0  0  0  0  0  0  0  0  0  0
    4.3845    0.0048    0.1313 Cl  0  0  0  0  0  0  0  0  0  0  0  0
    3.9937   -0.0008   -5.0558 C   0  0  0  0  0  0  0  0  0  0  0  0
    3.3996   -0.6130   -6.1446 C   0  0  0  0  0  0  0  0  0  0  0  0
    3.9471   -0.6632   -7.3793 N   0  0  0  0  0  0  0  0  0  0  0  0
    5.1501   -0.0664   -7.5601 C   0  0  0  0  0  0  0  0  0  0  0  0
    5.8223    0.5584   -6.5078 C   0  0  0  0  0  0  0  0  0  0  0  0
    5.2357    0.6048   -5.2370 C   0  0  0  0  0  0  0  0  0  0  0  0
    7.1303    1.1596   -6.7327 C   0  0  0  0  0  0  0  0  0  0  0  0
    7.5794    2.0092   -5.9661 O   0  0  0  0  0  0  0  0  0  0  0  0
    7.8222    0.6763   -7.8335 N   0  0  0  0  0  0  0  0  0  0  0  0
    9.1397    1.1346   -8.1743 C   0  0  0  0  0  0  0  0  0  0  0  0
   10.2543    0.3658   -7.5621 C   0  0  0  0  0  0  0  0  0  0  0  0
   10.7878    0.7157   -6.3230 C   0  0  0  0  0  0  0  0  0  0  0  0
   11.8311   -0.0598   -5.8020 C   0  0  0  0  0  0  0  0  0  0  0  0
   12.3248   -1.1411   -6.5346 C   0  0  0  0  0  0  0  0  0  0  0  0
   11.7979   -1.4854   -7.7346 N   0  0  0  0  0  0  0  0  0  0  0  0
   10.7880   -0.7287   -8.2183 C   0  0  0  0  0  0  0  0  0  0  0  0
   10.2910   -1.1281   -9.4624 N   0  0  0  0  0  0  0  0  0  0  0  0
   11.2169   -1.1432  -10.6033 C   0  0  0  0  0  0  0  0  0  0  0  0
   10.4263   -1.0945  -11.9059 C   0  0  0  0  0  0  0  0  0  0  0  0
    9.4653   -2.1496  -11.9459 O   0  0  0  0  0  0  0  0  0  0  0  0
    8.5113   -2.0011  -10.8944 C   0  0  0  0  0  0  0  0  0  0  0  0
    9.1951   -2.1000   -9.5352 C   0  0  0  0  0  0  0  0  0  0  0  0
   -0.0584   -2.1115    4.1754 H   0  0  0  0  0  0  0  0  0  0  0  0
   -1.5226   -1.2262    3.7144 H   0  0  0  0  0  0  0  0  0  0  0  0
   -0.0586   -0.3394    4.1836 H   0  0  0  0  0  0  0  0  0  0  0  0
    1.1325   -1.2573    2.1831 H   0  0  0  0  0  0  0  0  0  0  0  0
   -0.3230   -2.1396    1.7169 H   0  0  0  0  0  0  0  0  0  0  0  0
   -1.5621    0.0413    1.4835 H   0  0  0  0  0  0  0  0  0  0  0  0
   -0.1182    0.9168    1.9465 H   0  0  0  0  0  0  0  0  0  0  0  0
   -0.3761   -0.8988   -0.5035 H   0  0  0  0  0  0  0  0  0  0  0  0
   -0.3761    0.8988   -0.5034 H   0  0  0  0  0  0  0  0  0  0  0  0
    0.2172   -0.0390   -2.3696 H   0  0  0  0  0  0  0  0  0  0  0  0
    1.2991   -0.0397   -4.5360 H   0  0  0  0  0  0  0  0  0  0  0  0
    5.1421    0.0101   -2.6127 H   0  0  0  0  0  0  0  0  0  0  0  0
    2.4341   -1.0989   -6.0492 H   0  0  0  0  0  0  0  0  0  0  0  0
    5.5667   -0.1177   -8.5582 H   0  0  0  0  0  0  0  0  0  0  0  0
    5.7426    1.0915   -4.4109 H   0  0  0  0  0  0  0  0  0  0  0  0
    7.4359   -0.0759   -8.3930 H   0  0  0  0  0  0  0  0  0  0  0  0
    9.2377    2.2062   -7.9628 H   0  0  0  0  0  0  0  0  0  0  0  0
    9.2445    1.0489   -9.2634 H   0  0  0  0  0  0  0  0  0  0  0  0
   10.3973    1.5623   -5.7688 H   0  0  0  0  0  0  0  0  0  0  0  0
   12.2557    0.1783   -4.8304 H   0  0  0  0  0  0  0  0  0  0  0  0
   13.1342   -1.7607   -6.1696 H   0  0  0  0  0  0  0  0  0  0  0  0
   11.9216   -0.3065  -10.6010 H   0  0  0  0  0  0  0  0  0  0  0  0
   11.8021   -2.0703  -10.5612 H   0  0  0  0  0  0  0  0  0  0  0  0
    9.9161   -0.1314  -12.0286 H   0  0  0  0  0  0  0  0  0  0  0  0
   11.1014   -1.2235  -12.7577 H   0  0  0  0  0  0  0  0  0  0  0  0
    7.9883   -1.0440  -11.0103 H   0  0  0  0  0  0  0  0  0  0  0  0
    7.7691   -2.7989  -10.9980 H   0  0  0  0  0  0  0  0  0  0  0  0
    9.5998   -3.1101   -9.3969 H   0  0  0  0  0  0  0  0  0  0  0  0
    8.4396   -1.9131   -8.7633 H   0  0  0  0  0  0  0  0  0  0  0  0
  1  2  1  0
  2  3  1  0
  3  4  1  0
  4  5  1  0
  5  6  1  0
  6  7  2  0
  7  8  1  0
  8  9  2  0
  9 10  1  0
 10 11  2  0
 11 12  1  0
  9 13  1  0
 13 14  2  0
 14 15  1  0
 15 16  2  0
 16 17  1  0
 17 18  2  0
 17 19  1  0
 19 20  2  0
 19 21  1  0
 21 22  1  0
 22 23  1  0
 23 24  2  0
 24 25  1  0
 25 26  2  0
 26 27  1  0
 27 28  2  0
 28 29  1  0
 29 30  1  0
 30 31  1  0
 31 32  1  0
 32 33  1  0
 33 34  1  0
 11  6  1  0
 18 13  1  0
 28 23  1  0
 34 29  1  0
  1 35  1  0
  1 36  1  0
  1 37  1  0
  2 38  1  0
  2 39  1  0
  3 40  1  0
  3 41  1  0
  4 42  1  0
  4 43  1  0
  7 44  1  0
  8 45  1  0
 10 46  1  0
 14 47  1  0
 16 48  1  0
 18 49  1  0
 21 50  1  0
 22 51  1  0
 22 52  1  0
 24 53  1  0
 25 54  1  0
 26 55  1  0
 30 56  1  0
 30 57  1  0
 31 58  1  0
 31 59  1  0
 33 60  1  0
 33 61  1  0
 34 62  1  0
 34 63  1  0
M  END
>  <_MoleculeID>  (184) 
smi19

>  <_InputIndex>  (184) 
19

>  <_InputSMILES>  (184) 
CCCCOc1ccc(cc1Cl)-c1cncc(c1)C(=O)NCc1cccnc1N1CCOCC1

>  <_InputInChIKey>  (184) 
JPJGFWKHSMUKFO-UHFFFAOYSA-N

>  <_SMILES>  (184) 
CCCCOc1ccc(-c2cncc(C(=O)NCc3cccnc3N3CCOCC3)c2)cc1Cl

>  <_InChIKey>  (184) 
JPJGFWKHSMUKFO-UHFFFAOYSA-N

$$$$
smi19_conf9
     RDKit          3D

 63 66  0  0  0  0  0  0  0  0999 V2000
   -0.4295    1.2233    3.6546 C   0  0  0  0  0  0  0  0  0  0  0  0
    0.0371    1.2280    2.2077 C   0  0  0  0  0  0  0  0  0  0  0  0
   -0.4659    0.0000    1.4540 C   0  0  0  0  0  0  0  0  0  0  0  0
    0.0000    0.0000    0.0000 C   0  0  0  0  0  0  0  0  0  0  0  0
    1.4180   -0.0000    0.0000 O   0  0  0  0  0  0  0  0  0  0  0  0
    2.0477   -0.0000   -1.2234 C   0  0  0  0  0  0  0  0  0  0  0  0
    1.3040   -0.0195   -2.4060 C   0  0  0  0  0  0  0  0  0  0  0  0
    1.9386   -0.0186   -3.6570 C   0  0  0  0  0  0  0  0  0  0  0  0
    3.3366   -0.0013   -3.7789 C   0  0  0  0  0  0  0  0  0  0  0  0
    4.0538    0.0035   -2.5669 C   0  0  0  0  0  0  0  0  0  0  0  0
    3.4396   -0.0000   -1.3071 C   0  0  0  0  0  0  0  0  0  0  0  0
    4.3845    0.0048    0.1313 Cl  0  0  0  0  0  0  0  0  0  0  0  0
    3.9937   -0.0008   -5.0558 C   0  0  0  0  0  0  0  0  0  0  0  0
    5.2402   -0.5832   -5.1975 C   0  0  0  0  0  0  0  0  0  0  0  0
    5.9308   -0.6251   -6.3585 N   0  0  0  0  0  0  0  0  0  0  0  0
    5.3581   -0.0684   -7.4531 C   0  0  0  0  0  0  0  0  0  0  0  0
    4.1096    0.5535   -7.3892 C   0  0  0  0  0  0  0  0  0  0  0  0
    3.4071    0.5814   -6.1779 C   0  0  0  0  0  0  0  0  0  0  0  0
    3.5408    1.1714   -8.5798 C   0  0  0  0  0  0  0  0  0  0  0  0
    4.2504    1.4858   -9.5331 O   0  0  0  0  0  0  0  0  0  0  0  0
    2.1635    1.3343   -8.5612 N   0  0  0  0  0  0  0  0  0  0  0  0
    1.4411    1.8917   -9.6700 C   0  0  0  0  0  0  0  0  0  0  0  0
   -0.0291    1.9935   -9.4794 C   0  0  0  0  0  0  0  0  0  0  0  0
   -0.8854    0.9551   -9.8411 C   0  0  0  0  0  0  0  0  0  0  0  0
   -2.2595    1.1161   -9.6239 C   0  0  0  0  0  0  0  0  0  0  0  0
   -2.7407    2.3070   -9.0765 C   0  0  0  0  0  0  0  0  0  0  0  0
   -1.9054    3.3114   -8.7164 N   0  0  0  0  0  0  0  0  0  0  0  0
   -0.5823    3.1353   -8.9283 C   0  0  0  0  0  0  0  0  0  0  0  0
    0.2278    4.2078   -8.5438 N   0  0  0  0  0  0  0  0  0  0  0  0
    0.2054    4.6191   -7.1333 C   0  0  0  0  0  0  0  0  0  0  0  0
    1.4693    5.4073   -6.8090 C   0  0  0  0  0  0  0  0  0  0  0  0
    1.6204    6.5020   -7.7130 O   0  0  0  0  0  0  0  0  0  0  0  0
    1.7764    6.0311   -9.0515 C   0  0  0  0  0  0  0  0  0  0  0  0
    0.5296    5.2772   -9.5010 C   0  0  0  0  0  0  0  0  0  0  0  0
   -0.0576    2.1110    4.1757 H   0  0  0  0  0  0  0  0  0  0  0  0
   -0.0593    0.3390    4.1833 H   0  0  0  0  0  0  0  0  0  0  0  0
   -1.5226    1.2270    3.7145 H   0  0  0  0  0  0  0  0  0  0  0  0
   -0.3228    2.1396    1.7168 H   0  0  0  0  0  0  0  0  0  0  0  0
    1.1326    1.2572    2.1833 H   0  0  0  0  0  0  0  0  0  0  0  0
   -0.1178   -0.9169    1.9462 H   0  0  0  0  0  0  0  0  0  0  0  0
   -1.5620   -0.0415    1.4838 H   0  0  0  0  0  0  0  0  0  0  0  0
   -0.3761   -0.8988   -0.5035 H   0  0  0  0  0  0  0  0  0  0  0  0
   -0.3761    0.8988   -0.5034 H   0  0  0  0  0  0  0  0  0  0  0  0
    0.2172   -0.0390   -2.3696 H   0  0  0  0  0  0  0  0  0  0  0  0
    1.2991   -0.0397   -4.5360 H   0  0  0  0  0  0  0  0  0  0  0  0
    5.1421    0.0101   -2.6127 H   0  0  0  0  0  0  0  0  0  0  0  0
    5.7356   -1.0462   -4.3503 H   0  0  0  0  0  0  0  0  0  0  0  0
    5.9295   -0.1169   -8.3715 H   0  0  0  0  0  0  0  0  0  0  0  0
    2.4337    1.0555   -6.1135 H   0  0  0  0  0  0  0  0  0  0  0  0
    1.6166    0.9931   -7.7785 H   0  0  0  0  0  0  0  0  0  0  0  0
    1.6819    1.3509  -10.5931 H   0  0  0  0  0  0  0  0  0  0  0  0
    1.8201    2.9092   -9.8293 H   0  0  0  0  0  0  0  0  0  0  0  0
   -0.4967    0.0383  -10.2710 H   0  0  0  0  0  0  0  0  0  0  0  0
   -2.9501    0.3170   -9.8800 H   0  0  0  0  0  0  0  0  0  0  0  0
   -3.7959    2.4728   -8.8992 H   0  0  0  0  0  0  0  0  0  0  0  0
    0.1405    3.7777   -6.4372 H   0  0  0  0  0  0  0  0  0  0  0  0
   -0.6760    5.2522   -6.9720 H   0  0  0  0  0  0  0  0  0  0  0  0
    2.3610    4.7703   -6.8550 H   0  0  0  0  0  0  0  0  0  0  0  0
    1.4051    5.8158   -5.7955 H   0  0  0  0  0  0  0  0  0  0  0  0
    2.6701    5.3982   -9.1125 H   0  0  0  0  0  0  0  0  0  0  0  0
    1.9407    6.8996   -9.6970 H   0  0  0  0  0  0  0  0  0  0  0  0
   -0.3221    5.9666   -9.5510 H   0  0  0  0  0  0  0  0  0  0  0  0
    0.7203    4.8776  -10.5038 H   0  0  0  0  0  0  0  0  0  0  0  0
  1  2  1  0
  2  3  1  0
  3  4  1  0
  4  5  1  0
  5  6  1  0
  6  7  2  0
  7  8  1  0
  8  9  2  0
  9 10  1  0
 10 11  2  0
 11 12  1  0
  9 13  1  0
 13 14  2  0
 14 15  1  0
 15 16  2  0
 16 17  1  0
 17 18  2  0
 17 19  1  0
 19 20  2  0
 19 21  1  0
 21 22  1  0
 22 23  1  0
 23 24  2  0
 24 25  1  0
 25 26  2  0
 26 27  1  0
 27 28  2  0
 28 29  1  0
 29 30  1  0
 30 31  1  0
 31 32  1  0
 32 33  1  0
 33 34  1  0
 11  6  1  0
 18 13  1  0
 28 23  1  0
 34 29  1  0
  1 35  1  0
  1 36  1  0
  1 37  1  0
  2 38  1  0
  2 39  1  0
  3 40  1  0
  3 41  1  0
  4 42  1  0
  4 43  1  0
  7 44  1  0
  8 45  1  0
 10 46  1  0
 14 47  1  0
 16 48  1  0
 18 49  1  0
 21 50  1  0
 22 51  1  0
 22 52  1  0
 24 53  1  0
 25 54  1  0
 26 55  1  0
 30 56  1  0
 30 57  1  0
 31 58  1  0
 31 59  1  0
 33 60  1  0
 33 61  1  0
 34 62  1  0
 34 63  1  0
M  END
>  <_MoleculeID>  (185) 
smi19

>  <_InputIndex>  (185) 
19

>  <_InputSMILES>  (185) 
CCCCOc1ccc(cc1Cl)-c1cncc(c1)C(=O)NCc1cccnc1N1CCOCC1

>  <_InputInChIKey>  (185) 
JPJGFWKHSMUKFO-UHFFFAOYSA-N

>  <_SMILES>  (185) 
CCCCOc1ccc(-c2cncc(C(=O)NCc3cccnc3N3CCOCC3)c2)cc1Cl

>  <_InChIKey>  (185) 
JPJGFWKHSMUKFO-UHFFFAOYSA-N

$$$$
smi20_conf0
     RDKit          3D

 56 59  0  0  0  0  0  0  0  0999 V2000
   15.4180   -0.4110    8.7592 O   0  0  0  0  0  0  0  0  0  0  0  0
   14.3987   -0.4571    7.8624 C   0  0  0  0  0  0  0  0  0  0  0  0
   14.1203   -1.4407    7.1914 O   0  0  0  0  0  0  0  0  0  0  0  0
   13.6482    0.8295    7.7756 C   0  0  1  0  0  0  0  0  0  0  0  0
   14.5456    1.9918    7.3529 C   0  0  0  0  0  0  0  0  0  0  0  0
   13.5551    3.0777    6.9619 C   0  0  0  0  0  0  0  0  0  0  0  0
   12.3435    2.3425    6.3881 C   0  0  0  0  0  0  0  0  0  0  0  0
   12.5544    0.8493    6.6929 C   0  0  2  0  0  0  0  0  0  0  0  0
   11.2904    0.1676    7.0973 C   0  0  0  0  0  0  0  0  0  0  0  0
   11.1912   -0.3715    8.1966 O   0  0  0  0  0  0  0  0  0  0  0  0
   10.1706    0.1474    6.1654 C   0  0  0  0  0  0  0  0  0  0  0  0
    8.9719   -0.4834    6.5077 C   0  0  0  0  0  0  0  0  0  0  0  0
    7.8890   -0.5063    5.6163 C   0  0  0  0  0  0  0  0  0  0  0  0
    7.9585    0.0948    4.3500 C   0  0  0  0  0  0  0  0  0  0  0  0
    9.1860    0.7082    4.0334 C   0  0  0  0  0  0  0  0  0  0  0  0
   10.2808    0.7400    4.9080 C   0  0  0  0  0  0  0  0  0  0  0  0
    6.8546    0.0752    3.4318 C   0  0  0  0  0  0  0  0  0  0  0  0
    5.5392    0.0448    3.9018 C   0  0  0  0  0  0  0  0  0  0  0  0
    4.4556    0.0266    3.0112 C   0  0  0  0  0  0  0  0  0  0  0  0
    4.6394    0.0349    1.6199 C   0  0  0  0  0  0  0  0  0  0  0  0
    3.5669    0.0163    0.7280 N   0  0  0  0  0  0  0  0  0  0  0  0
    2.2252    0.0000    1.1308 C   0  0  0  0  0  0  0  0  0  0  0  0
    1.8311   -0.0000    2.2943 O   0  0  0  0  0  0  0  0  0  0  0  0
    1.3950    0.0000    0.0000 N   0  0  0  0  0  0  0  0  0  0  0  0
    0.0000    0.0000    0.0000 C   0  0  0  0  0  0  0  0  0  0  0  0
   -0.7111    0.0195   -1.2025 C   0  0  0  0  0  0  0  0  0  0  0  0
   -2.1138    0.0186   -1.2108 C   0  0  0  0  0  0  0  0  0  0  0  0
   -2.8620    0.0013   -0.0236 C   0  0  0  0  0  0  0  0  0  0  0  0
   -2.1126   -0.0035    1.1688 C   0  0  0  0  0  0  0  0  0  0  0  0
   -0.7114   -0.0000    1.1992 C   0  0  0  0  0  0  0  0  0  0  0  0
    5.9779    0.0509    1.1824 C   0  0  0  0  0  0  0  0  0  0  0  0
    7.0746    0.0666    2.0549 C   0  0  0  0  0  0  0  0  0  0  0  0
   15.5150    0.4466    9.2264 H   0  0  0  0  0  0  0  0  0  0  0  0
   13.2131    1.0448    8.7609 H   0  0  0  0  0  0  0  0  0  0  0  0
   15.1662    1.7216    6.4888 H   0  0  0  0  0  0  0  0  0  0  0  0
   15.2126    2.3200    8.1567 H   0  0  0  0  0  0  0  0  0  0  0  0
   13.2529    3.6444    7.8508 H   0  0  0  0  0  0  0  0  0  0  0  0
   13.9840    3.7872    6.2478 H   0  0  0  0  0  0  0  0  0  0  0  0
   11.4218    2.7418    6.8279 H   0  0  0  0  0  0  0  0  0  0  0  0
   12.2764    2.4988    5.3050 H   0  0  0  0  0  0  0  0  0  0  0  0
   12.9238    0.3570    5.7826 H   0  0  0  0  0  0  0  0  0  0  0  0
    8.8653   -0.9700    7.4744 H   0  0  0  0  0  0  0  0  0  0  0  0
    6.9885   -1.0190    5.9452 H   0  0  0  0  0  0  0  0  0  0  0  0
    9.2883    1.1820    3.0579 H   0  0  0  0  0  0  0  0  0  0  0  0
   11.2095    1.2257    4.6178 H   0  0  0  0  0  0  0  0  0  0  0  0
    5.3394    0.0316    4.9707 H   0  0  0  0  0  0  0  0  0  0  0  0
    3.4592   -0.0021    3.4452 H   0  0  0  0  0  0  0  0  0  0  0  0
    3.7722   -0.0001   -0.2656 H   0  0  0  0  0  0  0  0  0  0  0  0
    1.8474    0.0999   -0.9044 H   0  0  0  0  0  0  0  0  0  0  0  0
   -0.1814    0.0390   -2.1521 H   0  0  0  0  0  0  0  0  0  0  0  0
   -2.6026    0.0397   -2.1817 H   0  0  0  0  0  0  0  0  0  0  0  0
   -3.9439    0.0009   -0.0237 H   0  0  0  0  0  0  0  0  0  0  0  0
   -2.6514   -0.0101    2.1155 H   0  0  0  0  0  0  0  0  0  0  0  0
   -0.1765   -0.0031    2.1461 H   0  0  0  0  0  0  0  0  0  0  0  0
    6.1691    0.0511    0.1100 H   0  0  0  0  0  0  0  0  0  0  0  0
    8.0913    0.0779    1.6690 H   0  0  0  0  0  0  0  0  0  0  0  0
  1  2  1  0
  2  3  2  0
  4  2  1  0
  4  5  1  0
  5  6  1  0
  6  7  1  0
  7  8  1  0
  8  9  1  0
  9 10  2  0
  9 11  1  0
 11 12  2  0
 12 13  1  0
 13 14  2  0
 14 15  1  0
 15 16  2  0
 14 17  1  0
 17 18  2  0
 18 19  1  0
 19 20  2  0
 20 21  1  0
 21 22  1  0
 22 23  2  0
 22 24  1  0
 24 25  1  0
 25 26  2  0
 26 27  1  0
 27 28  2  0
 28 29  1  0
 29 30  2  0
 20 31  1  0
 31 32  2  0
  8  4  1  0
 16 11  1  0
 32 17  1  0
 30 25  1  0
  1 33  1  0
  4 34  1  1
  5 35  1  0
  5 36  1  0
  6 37  1  0
  6 38  1  0
  7 39  1  0
  7 40  1  0
  8 41  1  6
 12 42  1  0
 13 43  1  0
 15 44  1  0
 16 45  1  0
 18 46  1  0
 19 47  1  0
 21 48  1  0
 24 49  1  0
 26 50  1  0
 27 51  1  0
 28 52  1  0
 29 53  1  0
 30 54  1  0
 31 55  1  0
 32 56  1  0
M  END
>  <_MoleculeID>  (186) 
smi20

>  <_InputIndex>  (186) 
20

>  <_InputSMILES>  (186) 
OC(=O)[C@@H]1CCC[C@H]1C(=O)c1ccc(cc1)-c1ccc(NC(=O)Nc2ccccc2)cc1

>  <_InputInChIKey>  (186) 
BOZRFEQDOFSZBV-DHIUTWEWSA-N

>  <_SMILES>  (186) 
O=C(Nc1ccccc1)Nc1ccc(-c2ccc(C(=O)[C@@H]3CCC[C@H]3C(=O)O)cc2)cc1

>  <_InChIKey>  (186) 
BOZRFEQDOFSZBV-DHIUTWEWSA-N

$$$$
smi20_conf1
     RDKit          3D

 56 59  0  0  0  0  0  0  0  0999 V2000
   14.5284    1.6697    9.7923 O   0  0  0  0  0  0  0  0  0  0  0  0
   13.4815    1.7077    8.9274 C   0  0  0  0  0  0  0  0  0  0  0  0
   12.5219    2.4563    9.0453 O   0  0  0  0  0  0  0  0  0  0  0  0
   13.6214    0.7296    7.8094 C   0  0  2  0  0  0  0  0  0  0  0  0
   14.8749    0.9858    6.9740 C   0  0  0  0  0  0  0  0  0  0  0  0
   14.6334    0.1666    5.7156 C   0  0  0  0  0  0  0  0  0  0  0  0
   13.1215    0.1950    5.4898 C   0  0  0  0  0  0  0  0  0  0  0  0
   12.5026    0.8126    6.7556 C   0  0  1  0  0  0  0  0  0  0  0  0
   11.2383    0.1316    7.1607 C   0  0  0  0  0  0  0  0  0  0  0  0
   11.1396   -0.4081    8.2596 O   0  0  0  0  0  0  0  0  0  0  0  0
   10.1178    0.1130    6.2296 C   0  0  0  0  0  0  0  0  0  0  0  0
   10.2230    0.7249    4.9780 C   0  0  0  0  0  0  0  0  0  0  0  0
    9.1490    0.7104    4.0757 C   0  0  0  0  0  0  0  0  0  0  0  0
    7.9291    0.0894    4.3854 C   0  0  0  0  0  0  0  0  0  0  0  0
    7.8541   -0.5041    5.6604 C   0  0  0  0  0  0  0  0  0  0  0  0
    8.9139   -0.4985    6.5775 C   0  0  0  0  0  0  0  0  0  0  0  0
    6.8250    0.0708    3.4675 C   0  0  0  0  0  0  0  0  0  0  0  0
    7.0468    0.0822    2.0881 C   0  0  0  0  0  0  0  0  0  0  0  0
    5.9735    0.0631    1.1851 C   0  0  0  0  0  0  0  0  0  0  0  0
    4.6394    0.0349    1.6199 C   0  0  0  0  0  0  0  0  0  0  0  0
    3.5669    0.0163    0.7280 N   0  0  0  0  0  0  0  0  0  0  0  0
    2.2252    0.0000    1.1308 C   0  0  0  0  0  0  0  0  0  0  0  0
    1.8311   -0.0000    2.2943 O   0  0  0  0  0  0  0  0  0  0  0  0
    1.3950    0.0000    0.0000 N   0  0  0  0  0  0  0  0  0  0  0  0
    0.0000    0.0000    0.0000 C   0  0  0  0  0  0  0  0  0  0  0  0
   -0.7111    0.0195   -1.2025 C   0  0  0  0  0  0  0  0  0  0  0  0
   -2.1138    0.0186   -1.2108 C   0  0  0  0  0  0  0  0  0  0  0  0
   -2.8620    0.0013   -0.0236 C   0  0  0  0  0  0  0  0  0  0  0  0
   -2.1126   -0.0035    1.1688 C   0  0  0  0  0  0  0  0  0  0  0  0
   -0.7114   -0.0000    1.1992 C   0  0  0  0  0  0  0  0  0  0  0  0
    4.4534    0.0387    3.0158 C   0  0  0  0  0  0  0  0  0  0  0  0
    5.5113    0.0604    3.9350 C   0  0  0  0  0  0  0  0  0  0  0  0
   15.2270    1.0198    9.5628 H   0  0  0  0  0  0  0  0  0  0  0  0
   13.6685   -0.2814    8.2363 H   0  0  0  0  0  0  0  0  0  0  0  0
   14.9714    2.0486    6.7168 H   0  0  0  0  0  0  0  0  0  0  0  0
   15.7914    0.6798    7.4888 H   0  0  0  0  0  0  0  0  0  0  0  0
   14.9608   -0.8677    5.8754 H   0  0  0  0  0  0  0  0  0  0  0  0
   15.1868    0.5593    4.8572 H   0  0  0  0  0  0  0  0  0  0  0  0
   12.7553   -0.8183    5.2864 H   0  0  0  0  0  0  0  0  0  0  0  0
   12.8749    0.8072    4.6142 H   0  0  0  0  0  0  0  0  0  0  0  0
   12.2644    1.8652    6.5489 H   0  0  0  0  0  0  0  0  0  0  0  0
   11.1440    1.2256    4.6884 H   0  0  0  0  0  0  0  0  0  0  0  0
    9.2978    1.2101    3.1217 H   0  0  0  0  0  0  0  0  0  0  0  0
    6.9235   -0.9922    5.9471 H   0  0  0  0  0  0  0  0  0  0  0  0
    8.8078   -0.9700    7.5517 H   0  0  0  0  0  0  0  0  0  0  0  0
    8.0609    0.1095    1.6963 H   0  0  0  0  0  0  0  0  0  0  0  0
    6.2180    0.0787    0.1259 H   0  0  0  0  0  0  0  0  0  0  0  0
    3.7722   -0.0001   -0.2656 H   0  0  0  0  0  0  0  0  0  0  0  0
    1.8474    0.0999   -0.9044 H   0  0  0  0  0  0  0  0  0  0  0  0
   -0.1814    0.0390   -2.1521 H   0  0  0  0  0  0  0  0  0  0  0  0
   -2.6026    0.0397   -2.1817 H   0  0  0  0  0  0  0  0  0  0  0  0
   -3.9439    0.0009   -0.0237 H   0  0  0  0  0  0  0  0  0  0  0  0
   -2.6514   -0.0101    2.1155 H   0  0  0  0  0  0  0  0  0  0  0  0
   -0.1765   -0.0031    2.1461 H   0  0  0  0  0  0  0  0  0  0  0  0
    3.4341    0.0242    3.3995 H   0  0  0  0  0  0  0  0  0  0  0  0
    5.3173    0.0634    5.0051 H   0  0  0  0  0  0  0  0  0  0  0  0
  1  2  1  0
  2  3  2  0
  4  2  1  0
  4  5  1  0
  5  6  1  0
  6  7  1  0
  7  8  1  0
  8  9  1  0
  9 10  2  0
  9 11  1  0
 11 12  2  0
 12 13  1  0
 13 14  2  0
 14 15  1  0
 15 16  2  0
 14 17  1  0
 17 18  2  0
 18 19  1  0
 19 20  2  0
 20 21  1  0
 21 22  1  0
 22 23  2  0
 22 24  1  0
 24 25  1  0
 25 26  2  0
 26 27  1  0
 27 28  2  0
 28 29  1  0
 29 30  2  0
 20 31  1  0
 31 32  2  0
  8  4  1  0
 16 11  1  0
 32 17  1  0
 30 25  1  0
  1 33  1  0
  4 34  1  1
  5 35  1  0
  5 36  1  0
  6 37  1  0
  6 38  1  0
  7 39  1  0
  7 40  1  0
  8 41  1  6
 12 42  1  0
 13 43  1  0
 15 44  1  0
 16 45  1  0
 18 46  1  0
 19 47  1  0
 21 48  1  0
 24 49  1  0
 26 50  1  0
 27 51  1  0
 28 52  1  0
 29 53  1  0
 30 54  1  0
 31 55  1  0
 32 56  1  0
M  END
>  <_MoleculeID>  (187) 
smi20

>  <_InputIndex>  (187) 
20

>  <_InputSMILES>  (187) 
OC(=O)[C@@H]1CCC[C@H]1C(=O)c1ccc(cc1)-c1ccc(NC(=O)Nc2ccccc2)cc1

>  <_InputInChIKey>  (187) 
BOZRFEQDOFSZBV-DHIUTWEWSA-N

>  <_SMILES>  (187) 
O=C(Nc1ccccc1)Nc1ccc(-c2ccc(C(=O)[C@@H]3CCC[C@H]3C(=O)O)cc2)cc1

>  <_InChIKey>  (187) 
BOZRFEQDOFSZBV-DHIUTWEWSA-N

$$$$
smi20_conf2
     RDKit          3D

 56 59  0  0  0  0  0  0  0  0999 V2000
   14.3097    1.4196    9.1226 O   0  0  0  0  0  0  0  0  0  0  0  0
   14.3708    0.8898    7.8732 C   0  0  0  0  0  0  0  0  0  0  0  0
   14.9302    1.4268    6.9277 O   0  0  0  0  0  0  0  0  0  0  0  0
   13.6750   -0.4260    7.7700 C   0  0  2  0  0  0  0  0  0  0  0  0
   14.6208   -1.5446    7.3353 C   0  0  0  0  0  0  0  0  0  0  0  0
   13.6772   -2.6664    6.9299 C   0  0  0  0  0  0  0  0  0  0  0  0
   12.4365   -1.9758    6.3626 C   0  0  0  0  0  0  0  0  0  0  0  0
   12.5843   -0.4788    6.6852 C   0  0  1  0  0  0  0  0  0  0  0  0
   11.2924    0.1446    7.0954 C   0  0  0  0  0  0  0  0  0  0  0  0
   11.1693    0.6660    8.2007 O   0  0  0  0  0  0  0  0  0  0  0  0
   10.1723    0.1242    6.1638 C   0  0  0  0  0  0  0  0  0  0  0  0
    8.9462    0.6956    6.5134 C   0  0  0  0  0  0  0  0  0  0  0  0
    7.8635    0.6809    5.6217 C   0  0  0  0  0  0  0  0  0  0  0  0
    7.9585    0.0948    4.3500 C   0  0  0  0  0  0  0  0  0  0  0  0
    9.2038   -0.4839    4.0375 C   0  0  0  0  0  0  0  0  0  0  0  0
   10.2970   -0.4825    4.9146 C   0  0  0  0  0  0  0  0  0  0  0  0
    6.8546    0.0752    3.4318 C   0  0  0  0  0  0  0  0  0  0  0  0
    5.5392    0.0448    3.9018 C   0  0  0  0  0  0  0  0  0  0  0  0
    4.4556    0.0266    3.0112 C   0  0  0  0  0  0  0  0  0  0  0  0
    4.6394    0.0349    1.6199 C   0  0  0  0  0  0  0  0  0  0  0  0
    3.5669    0.0163    0.7280 N   0  0  0  0  0  0  0  0  0  0  0  0
    2.2252   -0.0000    1.1308 C   0  0  0  0  0  0  0  0  0  0  0  0
    1.8311   -0.0000    2.2943 O   0  0  0  0  0  0  0  0  0  0  0  0
    1.3950    0.0000    0.0000 N   0  0  0  0  0  0  0  0  0  0  0  0
    0.0000    0.0000    0.0000 C   0  0  0  0  0  0  0  0  0  0  0  0
   -0.7111    0.0195   -1.2025 C   0  0  0  0  0  0  0  0  0  0  0  0
   -2.1138    0.0186   -1.2108 C   0  0  0  0  0  0  0  0  0  0  0  0
   -2.8620    0.0013   -0.0236 C   0  0  0  0  0  0  0  0  0  0  0  0
   -2.1126   -0.0035    1.1688 C   0  0  0  0  0  0  0  0  0  0  0  0
   -0.7114   -0.0000    1.1992 C   0  0  0  0  0  0  0  0  0  0  0  0
    5.9779    0.0509    1.1824 C   0  0  0  0  0  0  0  0  0  0  0  0
    7.0746    0.0666    2.0549 C   0  0  0  0  0  0  0  0  0  0  0  0
   13.8306    0.8691    9.7788 H   0  0  0  0  0  0  0  0  0  0  0  0
   13.2480   -0.6709    8.7519 H   0  0  0  0  0  0  0  0  0  0  0  0
   15.2307   -1.2385    6.4755 H   0  0  0  0  0  0  0  0  0  0  0  0
   15.2999   -1.8541    8.1363 H   0  0  0  0  0  0  0  0  0  0  0  0
   13.3979   -3.2557    7.8115 H   0  0  0  0  0  0  0  0  0  0  0  0
   14.1363   -3.3489    6.2083 H   0  0  0  0  0  0  0  0  0  0  0  0
   11.5319   -2.4185    6.7961 H   0  0  0  0  0  0  0  0  0  0  0  0
   12.3774   -2.1221    5.2776 H   0  0  0  0  0  0  0  0  0  0  0  0
   12.9339    0.0392    5.7814 H   0  0  0  0  0  0  0  0  0  0  0  0
    8.8156    1.1586    7.4888 H   0  0  0  0  0  0  0  0  0  0  0  0
    6.9375    1.1388    5.9605 H   0  0  0  0  0  0  0  0  0  0  0  0
    9.3218   -0.9567    3.0633 H   0  0  0  0  0  0  0  0  0  0  0  0
   11.2394   -0.9434    4.6281 H   0  0  0  0  0  0  0  0  0  0  0  0
    5.3394    0.0316    4.9707 H   0  0  0  0  0  0  0  0  0  0  0  0
    3.4592   -0.0021    3.4452 H   0  0  0  0  0  0  0  0  0  0  0  0
    3.7722   -0.0001   -0.2656 H   0  0  0  0  0  0  0  0  0  0  0  0
    1.8474    0.0999   -0.9044 H   0  0  0  0  0  0  0  0  0  0  0  0
   -0.1814    0.0390   -2.1521 H   0  0  0  0  0  0  0  0  0  0  0  0
   -2.6026    0.0397   -2.1817 H   0  0  0  0  0  0  0  0  0  0  0  0
   -3.9439    0.0009   -0.0237 H   0  0  0  0  0  0  0  0  0  0  0  0
   -2.6514   -0.0101    2.1155 H   0  0  0  0  0  0  0  0  0  0  0  0
   -0.1765   -0.0031    2.1461 H   0  0  0  0  0  0  0  0  0  0  0  0
    6.1691    0.0511    0.1100 H   0  0  0  0  0  0  0  0  0  0  0  0
    8.0913    0.0779    1.6690 H   0  0  0  0  0  0  0  0  0  0  0  0
  1  2  1  0
  2  3  2  0
  4  2  1  0
  4  5  1  0
  5  6  1  0
  6  7  1  0
  7  8  1  0
  8  9  1  0
  9 10  2  0
  9 11  1  0
 11 12  2  0
 12 13  1  0
 13 14  2  0
 14 15  1  0
 15 16  2  0
 14 17  1  0
 17 18  2  0
 18 19  1  0
 19 20  2  0
 20 21  1  0
 21 22  1  0
 22 23  2  0
 22 24  1  0
 24 25  1  0
 25 26  2  0
 26 27  1  0
 27 28  2  0
 28 29  1  0
 29 30  2  0
 20 31  1  0
 31 32  2  0
  8  4  1  0
 16 11  1  0
 32 17  1  0
 30 25  1  0
  1 33  1  0
  4 34  1  1
  5 35  1  0
  5 36  1  0
  6 37  1  0
  6 38  1  0
  7 39  1  0
  7 40  1  0
  8 41  1  6
 12 42  1  0
 13 43  1  0
 15 44  1  0
 16 45  1  0
 18 46  1  0
 19 47  1  0
 21 48  1  0
 24 49  1  0
 26 50  1  0
 27 51  1  0
 28 52  1  0
 29 53  1  0
 30 54  1  0
 31 55  1  0
 32 56  1  0
M  END
>  <_MoleculeID>  (188) 
smi20

>  <_InputIndex>  (188) 
20

>  <_InputSMILES>  (188) 
OC(=O)[C@@H]1CCC[C@H]1C(=O)c1ccc(cc1)-c1ccc(NC(=O)Nc2ccccc2)cc1

>  <_InputInChIKey>  (188) 
BOZRFEQDOFSZBV-DHIUTWEWSA-N

>  <_SMILES>  (188) 
O=C(Nc1ccccc1)Nc1ccc(-c2ccc(C(=O)[C@@H]3CCC[C@H]3C(=O)O)cc2)cc1

>  <_InChIKey>  (188) 
BOZRFEQDOFSZBV-DHIUTWEWSA-N

$$$$
smi20_conf3
     RDKit          3D

 56 59  0  0  0  0  0  0  0  0999 V2000
   13.5592   -2.6414    8.3980 O   0  0  0  0  0  0  0  0  0  0  0  0
   13.5947   -1.3601    8.8482 C   0  0  0  0  0  0  0  0  0  0  0  0
   13.5456   -1.0471   10.0292 O   0  0  0  0  0  0  0  0  0  0  0  0
   13.6966   -0.3632    7.7428 C   0  0  1  0  0  0  0  0  0  0  0  0
   14.9613   -0.5574    6.9075 C   0  0  0  0  0  0  0  0  0  0  0  0
   14.6890    0.2669    5.6587 C   0  0  0  0  0  0  0  0  0  0  0  0
   13.1799    0.1794    5.4287 C   0  0  0  0  0  0  0  0  0  0  0  0
   12.5843   -0.4788    6.6852 C   0  0  2  0  0  0  0  0  0  0  0  0
   11.2924    0.1446    7.0954 C   0  0  0  0  0  0  0  0  0  0  0  0
   11.1693    0.6660    8.2007 O   0  0  0  0  0  0  0  0  0  0  0  0
   10.1723    0.1242    6.1638 C   0  0  0  0  0  0  0  0  0  0  0  0
    8.9462    0.6956    6.5134 C   0  0  0  0  0  0  0  0  0  0  0  0
    7.8635    0.6809    5.6217 C   0  0  0  0  0  0  0  0  0  0  0  0
    7.9585    0.0948    4.3500 C   0  0  0  0  0  0  0  0  0  0  0  0
    9.2038   -0.4839    4.0375 C   0  0  0  0  0  0  0  0  0  0  0  0
   10.2970   -0.4825    4.9146 C   0  0  0  0  0  0  0  0  0  0  0  0
    6.8546    0.0752    3.4318 C   0  0  0  0  0  0  0  0  0  0  0  0
    5.5392    0.0448    3.9018 C   0  0  0  0  0  0  0  0  0  0  0  0
    4.4556    0.0266    3.0112 C   0  0  0  0  0  0  0  0  0  0  0  0
    4.6394    0.0349    1.6199 C   0  0  0  0  0  0  0  0  0  0  0  0
    3.5669    0.0163    0.7280 N   0  0  0  0  0  0  0  0  0  0  0  0
    2.2252    0.0000    1.1308 C   0  0  0  0  0  0  0  0  0  0  0  0
    1.8311    0.0000    2.2943 O   0  0  0  0  0  0  0  0  0  0  0  0
    1.3950    0.0000    0.0000 N   0  0  0  0  0  0  0  0  0  0  0  0
    0.0000    0.0000    0.0000 C   0  0  0  0  0  0  0  0  0  0  0  0
   -0.7111    0.0195   -1.2025 C   0  0  0  0  0  0  0  0  0  0  0  0
   -2.1138    0.0186   -1.2108 C   0  0  0  0  0  0  0  0  0  0  0  0
   -2.8620    0.0013   -0.0236 C   0  0  0  0  0  0  0  0  0  0  0  0
   -2.1126   -0.0035    1.1688 C   0  0  0  0  0  0  0  0  0  0  0  0
   -0.7114   -0.0000    1.1992 C   0  0  0  0  0  0  0  0  0  0  0  0
    5.9779    0.0509    1.1824 C   0  0  0  0  0  0  0  0  0  0  0  0
    7.0746    0.0666    2.0549 C   0  0  0  0  0  0  0  0  0  0  0  0
   13.6129   -2.7353    7.4226 H   0  0  0  0  0  0  0  0  0  0  0  0
   13.7014    0.6434    8.1823 H   0  0  0  0  0  0  0  0  0  0  0  0
   15.1018   -1.6120    6.6374 H   0  0  0  0  0  0  0  0  0  0  0  0
   15.8634   -0.2205    7.4284 H   0  0  0  0  0  0  0  0  0  0  0  0
   14.9734    1.3117    5.8322 H   0  0  0  0  0  0  0  0  0  0  0  0
   15.2597   -0.0920    4.7969 H   0  0  0  0  0  0  0  0  0  0  0  0
   12.7729    1.1792    5.2370 H   0  0  0  0  0  0  0  0  0  0  0  0
   12.9605   -0.4315    4.5450 H   0  0  0  0  0  0  0  0  0  0  0  0
   12.3900   -1.5376    6.4648 H   0  0  0  0  0  0  0  0  0  0  0  0
    8.8156    1.1586    7.4888 H   0  0  0  0  0  0  0  0  0  0  0  0
    6.9375    1.1388    5.9605 H   0  0  0  0  0  0  0  0  0  0  0  0
    9.3218   -0.9567    3.0633 H   0  0  0  0  0  0  0  0  0  0  0  0
   11.2394   -0.9434    4.6281 H   0  0  0  0  0  0  0  0  0  0  0  0
    5.3394    0.0316    4.9707 H   0  0  0  0  0  0  0  0  0  0  0  0
    3.4592   -0.0021    3.4452 H   0  0  0  0  0  0  0  0  0  0  0  0
    3.7722   -0.0001   -0.2656 H   0  0  0  0  0  0  0  0  0  0  0  0
    1.8474    0.0999   -0.9044 H   0  0  0  0  0  0  0  0  0  0  0  0
   -0.1814    0.0390   -2.1521 H   0  0  0  0  0  0  0  0  0  0  0  0
   -2.6026    0.0397   -2.1817 H   0  0  0  0  0  0  0  0  0  0  0  0
   -3.9439    0.0009   -0.0237 H   0  0  0  0  0  0  0  0  0  0  0  0
   -2.6514   -0.0101    2.1155 H   0  0  0  0  0  0  0  0  0  0  0  0
   -0.1765   -0.0031    2.1461 H   0  0  0  0  0  0  0  0  0  0  0  0
    6.1691    0.0511    0.1100 H   0  0  0  0  0  0  0  0  0  0  0  0
    8.0913    0.0779    1.6690 H   0  0  0  0  0  0  0  0  0  0  0  0
  1  2  1  0
  2  3  2  0
  4  2  1  0
  4  5  1  0
  5  6  1  0
  6  7  1  0
  7  8  1  0
  8  9  1  0
  9 10  2  0
  9 11  1  0
 11 12  2  0
 12 13  1  0
 13 14  2  0
 14 15  1  0
 15 16  2  0
 14 17  1  0
 17 18  2  0
 18 19  1  0
 19 20  2  0
 20 21  1  0
 21 22  1  0
 22 23  2  0
 22 24  1  0
 24 25  1  0
 25 26  2  0
 26 27  1  0
 27 28  2  0
 28 29  1  0
 29 30  2  0
 20 31  1  0
 31 32  2  0
  8  4  1  0
 16 11  1  0
 32 17  1  0
 30 25  1  0
  1 33  1  0
  4 34  1  1
  5 35  1  0
  5 36  1  0
  6 37  1  0
  6 38  1  0
  7 39  1  0
  7 40  1  0
  8 41  1  6
 12 42  1  0
 13 43  1  0
 15 44  1  0
 16 45  1  0
 18 46  1  0
 19 47  1  0
 21 48  1  0
 24 49  1  0
 26 50  1  0
 27 51  1  0
 28 52  1  0
 29 53  1  0
 30 54  1  0
 31 55  1  0
 32 56  1  0
M  END
>  <_MoleculeID>  (189) 
smi20

>  <_InputIndex>  (189) 
20

>  <_InputSMILES>  (189) 
OC(=O)[C@@H]1CCC[C@H]1C(=O)c1ccc(cc1)-c1ccc(NC(=O)Nc2ccccc2)cc1

>  <_InputInChIKey>  (189) 
BOZRFEQDOFSZBV-DHIUTWEWSA-N

>  <_SMILES>  (189) 
O=C(Nc1ccccc1)Nc1ccc(-c2ccc(C(=O)[C@@H]3CCC[C@H]3C(=O)O)cc2)cc1

>  <_InChIKey>  (189) 
BOZRFEQDOFSZBV-DHIUTWEWSA-N

$$$$
smi20_conf4
     RDKit          3D

 56 59  0  0  0  0  0  0  0  0999 V2000
   13.9426    1.5552    7.7781 O   0  0  0  0  0  0  0  0  0  0  0  0
   13.4021    1.7296    9.0122 C   0  0  0  0  0  0  0  0  0  0  0  0
   13.7330    2.6164    9.7863 O   0  0  0  0  0  0  0  0  0  0  0  0
   12.3554    0.7154    9.3318 C   0  0  1  0  0  0  0  0  0  0  0  0
   11.7602    0.9218   10.7239 C   0  0  0  0  0  0  0  0  0  0  0  0
   10.5008    0.0696   10.6987 C   0  0  0  0  0  0  0  0  0  0  0  0
    9.9981    0.1206    9.2556 C   0  0  0  0  0  0  0  0  0  0  0  0
   11.1108    0.7882    8.4291 C   0  0  2  0  0  0  0  0  0  0  0  0
   11.2924    0.1446    7.0954 C   0  0  0  0  0  0  0  0  0  0  0  0
   12.3678   -0.3595    6.7822 O   0  0  0  0  0  0  0  0  0  0  0  0
   10.1723    0.1242    6.1638 C   0  0  0  0  0  0  0  0  0  0  0  0
    8.9462    0.6956    6.5134 C   0  0  0  0  0  0  0  0  0  0  0  0
    7.8635    0.6809    5.6217 C   0  0  0  0  0  0  0  0  0  0  0  0
    7.9585    0.0948    4.3500 C   0  0  0  0  0  0  0  0  0  0  0  0
    9.2038   -0.4839    4.0375 C   0  0  0  0  0  0  0  0  0  0  0  0
   10.2970   -0.4825    4.9146 C   0  0  0  0  0  0  0  0  0  0  0  0
    6.8546    0.0752    3.4318 C   0  0  0  0  0  0  0  0  0  0  0  0
    5.5392    0.0448    3.9018 C   0  0  0  0  0  0  0  0  0  0  0  0
    4.4556    0.0266    3.0112 C   0  0  0  0  0  0  0  0  0  0  0  0
    4.6394    0.0349    1.6199 C   0  0  0  0  0  0  0  0  0  0  0  0
    3.5669    0.0163    0.7280 N   0  0  0  0  0  0  0  0  0  0  0  0
    2.2252    0.0000    1.1308 C   0  0  0  0  0  0  0  0  0  0  0  0
    1.8311    0.0000    2.2943 O   0  0  0  0  0  0  0  0  0  0  0  0
    1.3950    0.0000    0.0000 N   0  0  0  0  0  0  0  0  0  0  0  0
    0.0000    0.0000    0.0000 C   0  0  0  0  0  0  0  0  0  0  0  0
   -0.7111    0.0195   -1.2025 C   0  0  0  0  0  0  0  0  0  0  0  0
   -2.1138    0.0186   -1.2108 C   0  0  0  0  0  0  0  0  0  0  0  0
   -2.8620    0.0013   -0.0236 C   0  0  0  0  0  0  0  0  0  0  0  0
   -2.1126   -0.0035    1.1688 C   0  0  0  0  0  0  0  0  0  0  0  0
   -0.7114   -0.0000    1.1992 C   0  0  0  0  0  0  0  0  0  0  0  0
    5.9779    0.0509    1.1824 C   0  0  0  0  0  0  0  0  0  0  0  0
    7.0746    0.0666    2.0549 C   0  0  0  0  0  0  0  0  0  0  0  0
   13.5708    0.8026    7.2698 H   0  0  0  0  0  0  0  0  0  0  0  0
   12.8100   -0.2828    9.2743 H   0  0  0  0  0  0  0  0  0  0  0  0
   11.4976    1.9742   10.8925 H   0  0  0  0  0  0  0  0  0  0  0  0
   12.4437    0.6138   11.5218 H   0  0  0  0  0  0  0  0  0  0  0  0
   10.7456   -0.9656   10.9653 H   0  0  0  0  0  0  0  0  0  0  0  0
    9.7497    0.4253   11.4106 H   0  0  0  0  0  0  0  0  0  0  0  0
    9.7571   -0.8911    8.9083 H   0  0  0  0  0  0  0  0  0  0  0  0
    9.0763    0.7106    9.1902 H   0  0  0  0  0  0  0  0  0  0  0  0
   10.8360    1.8384    8.2594 H   0  0  0  0  0  0  0  0  0  0  0  0
    8.8156    1.1586    7.4888 H   0  0  0  0  0  0  0  0  0  0  0  0
    6.9375    1.1388    5.9605 H   0  0  0  0  0  0  0  0  0  0  0  0
    9.3218   -0.9567    3.0633 H   0  0  0  0  0  0  0  0  0  0  0  0
   11.2394   -0.9434    4.6281 H   0  0  0  0  0  0  0  0  0  0  0  0
    5.3394    0.0316    4.9707 H   0  0  0  0  0  0  0  0  0  0  0  0
    3.4592   -0.0021    3.4452 H   0  0  0  0  0  0  0  0  0  0  0  0
    3.7722   -0.0001   -0.2656 H   0  0  0  0  0  0  0  0  0  0  0  0
    1.8474    0.0999   -0.9044 H   0  0  0  0  0  0  0  0  0  0  0  0
   -0.1814    0.0390   -2.1521 H   0  0  0  0  0  0  0  0  0  0  0  0
   -2.6026    0.0397   -2.1817 H   0  0  0  0  0  0  0  0  0  0  0  0
   -3.9439    0.0009   -0.0237 H   0  0  0  0  0  0  0  0  0  0  0  0
   -2.6514   -0.0101    2.1155 H   0  0  0  0  0  0  0  0  0  0  0  0
   -0.1765   -0.0031    2.1461 H   0  0  0  0  0  0  0  0  0  0  0  0
    6.1691    0.0511    0.1100 H   0  0  0  0  0  0  0  0  0  0  0  0
    8.0913    0.0779    1.6690 H   0  0  0  0  0  0  0  0  0  0  0  0
  1  2  1  0
  2  3  2  0
  4  2  1  0
  4  5  1  0
  5  6  1  0
  6  7  1  0
  7  8  1  0
  8  9  1  0
  9 10  2  0
  9 11  1  0
 11 12  2  0
 12 13  1  0
 13 14  2  0
 14 15  1  0
 15 16  2  0
 14 17  1  0
 17 18  2  0
 18 19  1  0
 19 20  2  0
 20 21  1  0
 21 22  1  0
 22 23  2  0
 22 24  1  0
 24 25  1  0
 25 26  2  0
 26 27  1  0
 27 28  2  0
 28 29  1  0
 29 30  2  0
 20 31  1  0
 31 32  2  0
  8  4  1  0
 16 11  1  0
 32 17  1  0
 30 25  1  0
  1 33  1  0
  4 34  1  1
  5 35  1  0
  5 36  1  0
  6 37  1  0
  6 38  1  0
  7 39  1  0
  7 40  1  0
  8 41  1  6
 12 42  1  0
 13 43  1  0
 15 44  1  0
 16 45  1  0
 18 46  1  0
 19 47  1  0
 21 48  1  0
 24 49  1  0
 26 50  1  0
 27 51  1  0
 28 52  1  0
 29 53  1  0
 30 54  1  0
 31 55  1  0
 32 56  1  0
M  END
>  <_MoleculeID>  (190) 
smi20

>  <_InputIndex>  (190) 
20

>  <_InputSMILES>  (190) 
OC(=O)[C@@H]1CCC[C@H]1C(=O)c1ccc(cc1)-c1ccc(NC(=O)Nc2ccccc2)cc1

>  <_InputInChIKey>  (190) 
BOZRFEQDOFSZBV-DHIUTWEWSA-N

>  <_SMILES>  (190) 
O=C(Nc1ccccc1)Nc1ccc(-c2ccc(C(=O)[C@@H]3CCC[C@H]3C(=O)O)cc2)cc1

>  <_InChIKey>  (190) 
BOZRFEQDOFSZBV-DHIUTWEWSA-N

$$$$
smi20_conf5
     RDKit          3D

 56 59  0  0  0  0  0  0  0  0999 V2000
   13.9767   -2.3023    5.9946 O   0  0  0  0  0  0  0  0  0  0  0  0
   13.9326   -0.9949    5.6282 C   0  0  0  0  0  0  0  0  0  0  0  0
   14.0115   -0.6041    4.4722 O   0  0  0  0  0  0  0  0  0  0  0  0
   13.7806   -0.0744    6.7926 C   0  0  1  0  0  0  0  0  0  0  0  0
   14.9538    0.9132    6.9161 C   0  0  0  0  0  0  0  0  0  0  0  0
   14.3483    2.2575    7.3209 C   0  0  0  0  0  0  0  0  0  0  0  0
   12.8962    1.9653    7.6659 C   0  0  0  0  0  0  0  0  0  0  0  0
   12.5310    0.8213    6.7211 C   0  0  2  0  0  0  0  0  0  0  0  0
   11.2669    0.1398    7.1261 C   0  0  0  0  0  0  0  0  0  0  0  0
   11.1682   -0.3995    8.2252 O   0  0  0  0  0  0  0  0  0  0  0  0
   10.1466    0.1203    6.1947 C   0  0  0  0  0  0  0  0  0  0  0  0
   10.2519    0.7317    4.9429 C   0  0  0  0  0  0  0  0  0  0  0  0
    9.1782    0.7162    4.0404 C   0  0  0  0  0  0  0  0  0  0  0  0
    7.9585    0.0948    4.3500 C   0  0  0  0  0  0  0  0  0  0  0  0
    7.8834   -0.4982    5.6252 C   0  0  0  0  0  0  0  0  0  0  0  0
    8.9430   -0.4917    6.5426 C   0  0  0  0  0  0  0  0  0  0  0  0
    6.8546    0.0752    3.4318 C   0  0  0  0  0  0  0  0  0  0  0  0
    5.5392    0.0448    3.9018 C   0  0  0  0  0  0  0  0  0  0  0  0
    4.4556    0.0266    3.0112 C   0  0  0  0  0  0  0  0  0  0  0  0
    4.6394    0.0349    1.6199 C   0  0  0  0  0  0  0  0  0  0  0  0
    3.5669    0.0163    0.7280 N   0  0  0  0  0  0  0  0  0  0  0  0
    2.2252    0.0000    1.1308 C   0  0  0  0  0  0  0  0  0  0  0  0
    1.8311   -0.0000    2.2943 O   0  0  0  0  0  0  0  0  0  0  0  0
    1.3950    0.0000    0.0000 N   0  0  0  0  0  0  0  0  0  0  0  0
    0.0000    0.0000    0.0000 C   0  0  0  0  0  0  0  0  0  0  0  0
   -0.7111    0.0195   -1.2025 C   0  0  0  0  0  0  0  0  0  0  0  0
   -2.1138    0.0186   -1.2108 C   0  0  0  0  0  0  0  0  0  0  0  0
   -2.8620    0.0013   -0.0236 C   0  0  0  0  0  0  0  0  0  0  0  0
   -2.1126   -0.0035    1.1688 C   0  0  0  0  0  0  0  0  0  0  0  0
   -0.7114   -0.0000    1.1992 C   0  0  0  0  0  0  0  0  0  0  0  0
    5.9779    0.0509    1.1824 C   0  0  0  0  0  0  0  0  0  0  0  0
    7.0746    0.0666    2.0549 C   0  0  0  0  0  0  0  0  0  0  0  0
   13.8956   -2.4610    6.9596 H   0  0  0  0  0  0  0  0  0  0  0  0
   13.7456   -0.6891    7.7027 H   0  0  0  0  0  0  0  0  0  0  0  0
   15.5185    1.0239    5.9828 H   0  0  0  0  0  0  0  0  0  0  0  0
   15.6597    0.5641    7.6790 H   0  0  0  0  0  0  0  0  0  0  0  0
   14.3977    2.9519    6.4735 H   0  0  0  0  0  0  0  0  0  0  0  0
   14.8846    2.7174    8.1564 H   0  0  0  0  0  0  0  0  0  0  0  0
   12.8153    1.6556    8.7159 H   0  0  0  0  0  0  0  0  0  0  0  0
   12.2597    2.8449    7.5247 H   0  0  0  0  0  0  0  0  0  0  0  0
   12.4024    1.2156    5.7041 H   0  0  0  0  0  0  0  0  0  0  0  0
   11.1727    1.2327    4.6534 H   0  0  0  0  0  0  0  0  0  0  0  0
    9.3269    1.2156    3.0862 H   0  0  0  0  0  0  0  0  0  0  0  0
    6.9530   -0.9867    5.9118 H   0  0  0  0  0  0  0  0  0  0  0  0
    8.8368   -0.9629    7.5170 H   0  0  0  0  0  0  0  0  0  0  0  0
    5.3394    0.0316    4.9707 H   0  0  0  0  0  0  0  0  0  0  0  0
    3.4592   -0.0021    3.4452 H   0  0  0  0  0  0  0  0  0  0  0  0
    3.7722   -0.0001   -0.2656 H   0  0  0  0  0  0  0  0  0  0  0  0
    1.8474    0.0999   -0.9044 H   0  0  0  0  0  0  0  0  0  0  0  0
   -0.1814    0.0390   -2.1521 H   0  0  0  0  0  0  0  0  0  0  0  0
   -2.6026    0.0397   -2.1817 H   0  0  0  0  0  0  0  0  0  0  0  0
   -3.9439    0.0009   -0.0237 H   0  0  0  0  0  0  0  0  0  0  0  0
   -2.6514   -0.0101    2.1155 H   0  0  0  0  0  0  0  0  0  0  0  0
   -0.1765   -0.0031    2.1461 H   0  0  0  0  0  0  0  0  0  0  0  0
    6.1691    0.0511    0.1100 H   0  0  0  0  0  0  0  0  0  0  0  0
    8.0913    0.0779    1.6690 H   0  0  0  0  0  0  0  0  0  0  0  0
  1  2  1  0
  2  3  2  0
  4  2  1  0
  4  5  1  0
  5  6  1  0
  6  7  1  0
  7  8  1  0
  8  9  1  0
  9 10  2  0
  9 11  1  0
 11 12  2  0
 12 13  1  0
 13 14  2  0
 14 15  1  0
 15 16  2  0
 14 17  1  0
 17 18  2  0
 18 19  1  0
 19 20  2  0
 20 21  1  0
 21 22  1  0
 22 23  2  0
 22 24  1  0
 24 25  1  0
 25 26  2  0
 26 27  1  0
 27 28  2  0
 28 29  1  0
 29 30  2  0
 20 31  1  0
 31 32  2  0
  8  4  1  0
 16 11  1  0
 32 17  1  0
 30 25  1  0
  1 33  1  0
  4 34  1  1
  5 35  1  0
  5 36  1  0
  6 37  1  0
  6 38  1  0
  7 39  1  0
  7 40  1  0
  8 41  1  6
 12 42  1  0
 13 43  1  0
 15 44  1  0
 16 45  1  0
 18 46  1  0
 19 47  1  0
 21 48  1  0
 24 49  1  0
 26 50  1  0
 27 51  1  0
 28 52  1  0
 29 53  1  0
 30 54  1  0
 31 55  1  0
 32 56  1  0
M  END
>  <_MoleculeID>  (191) 
smi20

>  <_InputIndex>  (191) 
20

>  <_InputSMILES>  (191) 
OC(=O)[C@@H]1CCC[C@H]1C(=O)c1ccc(cc1)-c1ccc(NC(=O)Nc2ccccc2)cc1

>  <_InputInChIKey>  (191) 
BOZRFEQDOFSZBV-DHIUTWEWSA-N

>  <_SMILES>  (191) 
O=C(Nc1ccccc1)Nc1ccc(-c2ccc(C(=O)[C@@H]3CCC[C@H]3C(=O)O)cc2)cc1

>  <_InChIKey>  (191) 
BOZRFEQDOFSZBV-DHIUTWEWSA-N

$$$$
smi20_conf6
     RDKit          3D

 56 59  0  0  0  0  0  0  0  0999 V2000
   10.4900    2.0717   11.1197 O   0  0  0  0  0  0  0  0  0  0  0  0
   10.2302    1.2946   10.0361 C   0  0  0  0  0  0  0  0  0  0  0  0
    9.1812    1.3226    9.4084 O   0  0  0  0  0  0  0  0  0  0  0  0
   11.3655    0.3909    9.6890 C   0  0  1  0  0  0  0  0  0  0  0  0
   11.7212   -0.5707   10.8360 C   0  0  0  0  0  0  0  0  0  0  0  0
   12.0355   -1.9200   10.1893 C   0  0  0  0  0  0  0  0  0  0  0  0
   12.1035   -1.6513    8.6939 C   0  0  0  0  0  0  0  0  0  0  0  0
   11.0850   -0.5309    8.4887 C   0  0  2  0  0  0  0  0  0  0  0  0
   11.2383    0.1316    7.1607 C   0  0  0  0  0  0  0  0  0  0  0  0
   12.2898    0.6872    6.8533 O   0  0  0  0  0  0  0  0  0  0  0  0
   10.1178    0.1130    6.2296 C   0  0  0  0  0  0  0  0  0  0  0  0
   10.2230    0.7249    4.9780 C   0  0  0  0  0  0  0  0  0  0  0  0
    9.1490    0.7104    4.0757 C   0  0  0  0  0  0  0  0  0  0  0  0
    7.9291    0.0894    4.3854 C   0  0  0  0  0  0  0  0  0  0  0  0
    7.8541   -0.5041    5.6604 C   0  0  0  0  0  0  0  0  0  0  0  0
    8.9139   -0.4985    6.5775 C   0  0  0  0  0  0  0  0  0  0  0  0
    6.8250    0.0708    3.4675 C   0  0  0  0  0  0  0  0  0  0  0  0
    7.0468    0.0822    2.0881 C   0  0  0  0  0  0  0  0  0  0  0  0
    5.9735    0.0631    1.1851 C   0  0  0  0  0  0  0  0  0  0  0  0
    4.6394    0.0349    1.6199 C   0  0  0  0  0  0  0  0  0  0  0  0
    3.5669    0.0163    0.7280 N   0  0  0  0  0  0  0  0  0  0  0  0
    2.2252    0.0000    1.1308 C   0  0  0  0  0  0  0  0  0  0  0  0
    1.8311    0.0000    2.2943 O   0  0  0  0  0  0  0  0  0  0  0  0
    1.3950   -0.0000    0.0000 N   0  0  0  0  0  0  0  0  0  0  0  0
    0.0000    0.0000    0.0000 C   0  0  0  0  0  0  0  0  0  0  0  0
   -0.7111    0.0195   -1.2025 C   0  0  0  0  0  0  0  0  0  0  0  0
   -2.1138    0.0186   -1.2108 C   0  0  0  0  0  0  0  0  0  0  0  0
   -2.8620    0.0013   -0.0236 C   0  0  0  0  0  0  0  0  0  0  0  0
   -2.1126   -0.0035    1.1688 C   0  0  0  0  0  0  0  0  0  0  0  0
   -0.7114   -0.0000    1.1992 C   0  0  0  0  0  0  0  0  0  0  0  0
    4.4534    0.0387    3.0158 C   0  0  0  0  0  0  0  0  0  0  0  0
    5.5113    0.0604    3.9350 C   0  0  0  0  0  0  0  0  0  0  0  0
   11.3785    1.9406   11.5152 H   0  0  0  0  0  0  0  0  0  0  0  0
   12.2414    1.0198    9.4776 H   0  0  0  0  0  0  0  0  0  0  0  0
   10.9092   -0.6856   11.5639 H   0  0  0  0  0  0  0  0  0  0  0  0
   12.5931   -0.1948   11.3844 H   0  0  0  0  0  0  0  0  0  0  0  0
   11.2256   -2.6273   10.4046 H   0  0  0  0  0  0  0  0  0  0  0  0
   12.9641   -2.3549   10.5712 H   0  0  0  0  0  0  0  0  0  0  0  0
   13.1145   -1.3258    8.4169 H   0  0  0  0  0  0  0  0  0  0  0  0
   11.8660   -2.5458    8.1088 H   0  0  0  0  0  0  0  0  0  0  0  0
   10.0697   -0.9448    8.5551 H   0  0  0  0  0  0  0  0  0  0  0  0
   11.1440    1.2256    4.6884 H   0  0  0  0  0  0  0  0  0  0  0  0
    9.2978    1.2101    3.1217 H   0  0  0  0  0  0  0  0  0  0  0  0
    6.9235   -0.9922    5.9471 H   0  0  0  0  0  0  0  0  0  0  0  0
    8.8078   -0.9700    7.5517 H   0  0  0  0  0  0  0  0  0  0  0  0
    8.0609    0.1095    1.6963 H   0  0  0  0  0  0  0  0  0  0  0  0
    6.2180    0.0787    0.1259 H   0  0  0  0  0  0  0  0  0  0  0  0
    3.7722   -0.0001   -0.2656 H   0  0  0  0  0  0  0  0  0  0  0  0
    1.8474    0.0999   -0.9044 H   0  0  0  0  0  0  0  0  0  0  0  0
   -0.1814    0.0390   -2.1521 H   0  0  0  0  0  0  0  0  0  0  0  0
   -2.6026    0.0397   -2.1817 H   0  0  0  0  0  0  0  0  0  0  0  0
   -3.9439    0.0009   -0.0237 H   0  0  0  0  0  0  0  0  0  0  0  0
   -2.6514   -0.0101    2.1155 H   0  0  0  0  0  0  0  0  0  0  0  0
   -0.1765   -0.0031    2.1461 H   0  0  0  0  0  0  0  0  0  0  0  0
    3.4341    0.0242    3.3995 H   0  0  0  0  0  0  0  0  0  0  0  0
    5.3173    0.0634    5.0051 H   0  0  0  0  0  0  0  0  0  0  0  0
  1  2  1  0
  2  3  2  0
  4  2  1  0
  4  5  1  0
  5  6  1  0
  6  7  1  0
  7  8  1  0
  8  9  1  0
  9 10  2  0
  9 11  1  0
 11 12  2  0
 12 13  1  0
 13 14  2  0
 14 15  1  0
 15 16  2  0
 14 17  1  0
 17 18  2  0
 18 19  1  0
 19 20  2  0
 20 21  1  0
 21 22  1  0
 22 23  2  0
 22 24  1  0
 24 25  1  0
 25 26  2  0
 26 27  1  0
 27 28  2  0
 28 29  1  0
 29 30  2  0
 20 31  1  0
 31 32  2  0
  8  4  1  0
 16 11  1  0
 32 17  1  0
 30 25  1  0
  1 33  1  0
  4 34  1  6
  5 35  1  0
  5 36  1  0
  6 37  1  0
  6 38  1  0
  7 39  1  0
  7 40  1  0
  8 41  1  1
 12 42  1  0
 13 43  1  0
 15 44  1  0
 16 45  1  0
 18 46  1  0
 19 47  1  0
 21 48  1  0
 24 49  1  0
 26 50  1  0
 27 51  1  0
 28 52  1  0
 29 53  1  0
 30 54  1  0
 31 55  1  0
 32 56  1  0
M  END
>  <_MoleculeID>  (192) 
smi20

>  <_InputIndex>  (192) 
20

>  <_InputSMILES>  (192) 
OC(=O)[C@@H]1CCC[C@H]1C(=O)c1ccc(cc1)-c1ccc(NC(=O)Nc2ccccc2)cc1

>  <_InputInChIKey>  (192) 
BOZRFEQDOFSZBV-DHIUTWEWSA-N

>  <_SMILES>  (192) 
O=C(Nc1ccccc1)Nc1ccc(-c2ccc(C(=O)[C@@H]3CCC[C@H]3C(=O)O)cc2)cc1

>  <_InChIKey>  (192) 
BOZRFEQDOFSZBV-DHIUTWEWSA-N

$$$$
smi20_conf7
     RDKit          3D

 56 59  0  0  0  0  0  0  0  0999 V2000
   12.8074    2.2373    5.4265 O   0  0  0  0  0  0  0  0  0  0  0  0
   13.8623    1.3862    5.5172 C   0  0  0  0  0  0  0  0  0  0  0  0
   14.7832    1.3481    4.7137 O   0  0  0  0  0  0  0  0  0  0  0  0
   13.7798    0.4904    6.7075 C   0  0  2  0  0  0  0  0  0  0  0  0
   14.9705   -0.4635    6.7936 C   0  0  0  0  0  0  0  0  0  0  0  0
   14.5164   -1.5035    7.8060 C   0  0  0  0  0  0  0  0  0  0  0  0
   13.0039   -1.6269    7.6194 C   0  0  0  0  0  0  0  0  0  0  0  0
   12.5843   -0.4788    6.6852 C   0  0  1  0  0  0  0  0  0  0  0  0
   11.2924    0.1446    7.0954 C   0  0  0  0  0  0  0  0  0  0  0  0
   11.1693    0.6660    8.2007 O   0  0  0  0  0  0  0  0  0  0  0  0
   10.1723    0.1242    6.1638 C   0  0  0  0  0  0  0  0  0  0  0  0
    8.9462    0.6956    6.5134 C   0  0  0  0  0  0  0  0  0  0  0  0
    7.8635    0.6809    5.6217 C   0  0  0  0  0  0  0  0  0  0  0  0
    7.9585    0.0948    4.3500 C   0  0  0  0  0  0  0  0  0  0  0  0
    9.2038   -0.4839    4.0375 C   0  0  0  0  0  0  0  0  0  0  0  0
   10.2970   -0.4825    4.9146 C   0  0  0  0  0  0  0  0  0  0  0  0
    6.8546    0.0752    3.4318 C   0  0  0  0  0  0  0  0  0  0  0  0
    5.5392    0.0448    3.9018 C   0  0  0  0  0  0  0  0  0  0  0  0
    4.4556    0.0266    3.0112 C   0  0  0  0  0  0  0  0  0  0  0  0
    4.6394    0.0349    1.6199 C   0  0  0  0  0  0  0  0  0  0  0  0
    3.5669    0.0163    0.7280 N   0  0  0  0  0  0  0  0  0  0  0  0
    2.2252    0.0000    1.1308 C   0  0  0  0  0  0  0  0  0  0  0  0
    1.8311   -0.0000    2.2943 O   0  0  0  0  0  0  0  0  0  0  0  0
    1.3950   -0.0000    0.0000 N   0  0  0  0  0  0  0  0  0  0  0  0
    0.0000    0.0000    0.0000 C   0  0  0  0  0  0  0  0  0  0  0  0
   -0.7111    0.0195   -1.2025 C   0  0  0  0  0  0  0  0  0  0  0  0
   -2.1138    0.0186   -1.2108 C   0  0  0  0  0  0  0  0  0  0  0  0
   -2.8620    0.0013   -0.0236 C   0  0  0  0  0  0  0  0  0  0  0  0
   -2.1126   -0.0035    1.1688 C   0  0  0  0  0  0  0  0  0  0  0  0
   -0.7114   -0.0000    1.1992 C   0  0  0  0  0  0  0  0  0  0  0  0
    5.9779    0.0509    1.1824 C   0  0  0  0  0  0  0  0  0  0  0  0
    7.0746    0.0666    2.0549 C   0  0  0  0  0  0  0  0  0  0  0  0
   12.1493    2.1537    6.1496 H   0  0  0  0  0  0  0  0  0  0  0  0
   13.7473    1.1148    7.6105 H   0  0  0  0  0  0  0  0  0  0  0  0
   15.1670   -0.9429    5.8259 H   0  0  0  0  0  0  0  0  0  0  0  0
   15.8889    0.0403    7.1121 H   0  0  0  0  0  0  0  0  0  0  0  0
   14.7331   -1.1538    8.8226 H   0  0  0  0  0  0  0  0  0  0  0  0
   15.0289   -2.4607    7.6698 H   0  0  0  0  0  0  0  0  0  0  0  0
   12.5032   -1.5887    8.5941 H   0  0  0  0  0  0  0  0  0  0  0  0
   12.7500   -2.5922    7.1656 H   0  0  0  0  0  0  0  0  0  0  0  0
   12.4537   -0.8843    5.6723 H   0  0  0  0  0  0  0  0  0  0  0  0
    8.8156    1.1586    7.4888 H   0  0  0  0  0  0  0  0  0  0  0  0
    6.9375    1.1388    5.9605 H   0  0  0  0  0  0  0  0  0  0  0  0
    9.3218   -0.9567    3.0633 H   0  0  0  0  0  0  0  0  0  0  0  0
   11.2394   -0.9434    4.6281 H   0  0  0  0  0  0  0  0  0  0  0  0
    5.3394    0.0316    4.9707 H   0  0  0  0  0  0  0  0  0  0  0  0
    3.4592   -0.0021    3.4452 H   0  0  0  0  0  0  0  0  0  0  0  0
    3.7722   -0.0001   -0.2656 H   0  0  0  0  0  0  0  0  0  0  0  0
    1.8474    0.0999   -0.9044 H   0  0  0  0  0  0  0  0  0  0  0  0
   -0.1814    0.0390   -2.1521 H   0  0  0  0  0  0  0  0  0  0  0  0
   -2.6026    0.0397   -2.1817 H   0  0  0  0  0  0  0  0  0  0  0  0
   -3.9439    0.0009   -0.0237 H   0  0  0  0  0  0  0  0  0  0  0  0
   -2.6514   -0.0101    2.1155 H   0  0  0  0  0  0  0  0  0  0  0  0
   -0.1765   -0.0031    2.1461 H   0  0  0  0  0  0  0  0  0  0  0  0
    6.1691    0.0511    0.1100 H   0  0  0  0  0  0  0  0  0  0  0  0
    8.0913    0.0779    1.6690 H   0  0  0  0  0  0  0  0  0  0  0  0
  1  2  1  0
  2  3  2  0
  4  2  1  0
  4  5  1  0
  5  6  1  0
  6  7  1  0
  7  8  1  0
  8  9  1  0
  9 10  2  0
  9 11  1  0
 11 12  2  0
 12 13  1  0
 13 14  2  0
 14 15  1  0
 15 16  2  0
 14 17  1  0
 17 18  2  0
 18 19  1  0
 19 20  2  0
 20 21  1  0
 21 22  1  0
 22 23  2  0
 22 24  1  0
 24 25  1  0
 25 26  2  0
 26 27  1  0
 27 28  2  0
 28 29  1  0
 29 30  2  0
 20 31  1  0
 31 32  2  0
  8  4  1  0
 16 11  1  0
 32 17  1  0
 30 25  1  0
  1 33  1  0
  4 34  1  1
  5 35  1  0
  5 36  1  0
  6 37  1  0
  6 38  1  0
  7 39  1  0
  7 40  1  0
  8 41  1  6
 12 42  1  0
 13 43  1  0
 15 44  1  0
 16 45  1  0
 18 46  1  0
 19 47  1  0
 21 48  1  0
 24 49  1  0
 26 50  1  0
 27 51  1  0
 28 52  1  0
 29 53  1  0
 30 54  1  0
 31 55  1  0
 32 56  1  0
M  END
>  <_MoleculeID>  (193) 
smi20

>  <_InputIndex>  (193) 
20

>  <_InputSMILES>  (193) 
OC(=O)[C@@H]1CCC[C@H]1C(=O)c1ccc(cc1)-c1ccc(NC(=O)Nc2ccccc2)cc1

>  <_InputInChIKey>  (193) 
BOZRFEQDOFSZBV-DHIUTWEWSA-N

>  <_SMILES>  (193) 
O=C(Nc1ccccc1)Nc1ccc(-c2ccc(C(=O)[C@@H]3CCC[C@H]3C(=O)O)cc2)cc1

>  <_InChIKey>  (193) 
BOZRFEQDOFSZBV-DHIUTWEWSA-N

$$$$
smi20_conf8
     RDKit          3D

 56 59  0  0  0  0  0  0  0  0999 V2000
   12.8253   -3.3805    7.2618 O   0  0  0  0  0  0  0  0  0  0  0  0
   11.8222   -2.9347    8.0622 C   0  0  0  0  0  0  0  0  0  0  0  0
   10.7649   -3.5257    8.2295 O   0  0  0  0  0  0  0  0  0  0  0  0
   12.1437   -1.6346    8.7199 C   0  0  2  0  0  0  0  0  0  0  0  0
   12.1230   -1.7401   10.2441 C   0  0  0  0  0  0  0  0  0  0  0  0
   12.0898   -0.2888   10.6975 C   0  0  0  0  0  0  0  0  0  0  0  0
   11.2997    0.4599    9.6238 C   0  0  0  0  0  0  0  0  0  0  0  0
   11.1136   -0.5222    8.4543 C   0  0  1  0  0  0  0  0  0  0  0  0
   11.2669    0.1398    7.1261 C   0  0  0  0  0  0  0  0  0  0  0  0
   12.3183    0.6958    6.8188 O   0  0  0  0  0  0  0  0  0  0  0  0
   10.1466    0.1203    6.1947 C   0  0  0  0  0  0  0  0  0  0  0  0
   10.2519    0.7317    4.9429 C   0  0  0  0  0  0  0  0  0  0  0  0
    9.1782    0.7162    4.0404 C   0  0  0  0  0  0  0  0  0  0  0  0
    7.9585    0.0948    4.3500 C   0  0  0  0  0  0  0  0  0  0  0  0
    7.8834   -0.4982    5.6252 C   0  0  0  0  0  0  0  0  0  0  0  0
    8.9430   -0.4917    6.5426 C   0  0  0  0  0  0  0  0  0  0  0  0
    6.8546    0.0752    3.4318 C   0  0  0  0  0  0  0  0  0  0  0  0
    5.5392    0.0448    3.9018 C   0  0  0  0  0  0  0  0  0  0  0  0
    4.4556    0.0266    3.0112 C   0  0  0  0  0  0  0  0  0  0  0  0
    4.6394    0.0349    1.6199 C   0  0  0  0  0  0  0  0  0  0  0  0
    3.5669    0.0163    0.7280 N   0  0  0  0  0  0  0  0  0  0  0  0
    2.2252    0.0000    1.1308 C   0  0  0  0  0  0  0  0  0  0  0  0
    1.8311    0.0000    2.2943 O   0  0  0  0  0  0  0  0  0  0  0  0
    1.3950    0.0000    0.0000 N   0  0  0  0  0  0  0  0  0  0  0  0
    0.0000    0.0000    0.0000 C   0  0  0  0  0  0  0  0  0  0  0  0
   -0.7111    0.0195   -1.2025 C   0  0  0  0  0  0  0  0  0  0  0  0
   -2.1138    0.0186   -1.2108 C   0  0  0  0  0  0  0  0  0  0  0  0
   -2.8620    0.0013   -0.0236 C   0  0  0  0  0  0  0  0  0  0  0  0
   -2.1126   -0.0035    1.1688 C   0  0  0  0  0  0  0  0  0  0  0  0
   -0.7114   -0.0000    1.1992 C   0  0  0  0  0  0  0  0  0  0  0  0
    5.9779    0.0509    1.1824 C   0  0  0  0  0  0  0  0  0  0  0  0
    7.0746    0.0666    2.0549 C   0  0  0  0  0  0  0  0  0  0  0  0
   13.6157   -2.7996    7.2324 H   0  0  0  0  0  0  0  0  0  0  0  0
   13.1419   -1.3162    8.3903 H   0  0  0  0  0  0  0  0  0  0  0  0
   11.2239   -2.2631   10.5947 H   0  0  0  0  0  0  0  0  0  0  0  0
   12.9959   -2.2698   10.6394 H   0  0  0  0  0  0  0  0  0  0  0  0
   13.1102    0.1099   10.7467 H   0  0  0  0  0  0  0  0  0  0  0  0
   11.6439   -0.1787   11.6907 H   0  0  0  0  0  0  0  0  0  0  0  0
   11.8351    1.3719    9.3341 H   0  0  0  0  0  0  0  0  0  0  0  0
   10.3226    0.7709   10.0121 H   0  0  0  0  0  0  0  0  0  0  0  0
   10.0973   -0.9369    8.5063 H   0  0  0  0  0  0  0  0  0  0  0  0
   11.1727    1.2327    4.6534 H   0  0  0  0  0  0  0  0  0  0  0  0
    9.3269    1.2156    3.0862 H   0  0  0  0  0  0  0  0  0  0  0  0
    6.9530   -0.9867    5.9118 H   0  0  0  0  0  0  0  0  0  0  0  0
    8.8368   -0.9629    7.5170 H   0  0  0  0  0  0  0  0  0  0  0  0
    5.3394    0.0316    4.9707 H   0  0  0  0  0  0  0  0  0  0  0  0
    3.4592   -0.0021    3.4452 H   0  0  0  0  0  0  0  0  0  0  0  0
    3.7722   -0.0001   -0.2656 H   0  0  0  0  0  0  0  0  0  0  0  0
    1.8474    0.0999   -0.9044 H   0  0  0  0  0  0  0  0  0  0  0  0
   -0.1814    0.0390   -2.1521 H   0  0  0  0  0  0  0  0  0  0  0  0
   -2.6026    0.0397   -2.1817 H   0  0  0  0  0  0  0  0  0  0  0  0
   -3.9439    0.0009   -0.0237 H   0  0  0  0  0  0  0  0  0  0  0  0
   -2.6514   -0.0101    2.1155 H   0  0  0  0  0  0  0  0  0  0  0  0
   -0.1765   -0.0031    2.1461 H   0  0  0  0  0  0  0  0  0  0  0  0
    6.1691    0.0511    0.1100 H   0  0  0  0  0  0  0  0  0  0  0  0
    8.0913    0.0779    1.6690 H   0  0  0  0  0  0  0  0  0  0  0  0
  1  2  1  0
  2  3  2  0
  4  2  1  0
  4  5  1  0
  5  6  1  0
  6  7  1  0
  7  8  1  0
  8  9  1  0
  9 10  2  0
  9 11  1  0
 11 12  2  0
 12 13  1  0
 13 14  2  0
 14 15  1  0
 15 16  2  0
 14 17  1  0
 17 18  2  0
 18 19  1  0
 19 20  2  0
 20 21  1  0
 21 22  1  0
 22 23  2  0
 22 24  1  0
 24 25  1  0
 25 26  2  0
 26 27  1  0
 27 28  2  0
 28 29  1  0
 29 30  2  0
 20 31  1  0
 31 32  2  0
  8  4  1  0
 16 11  1  0
 32 17  1  0
 30 25  1  0
  1 33  1  0
  4 34  1  6
  5 35  1  0
  5 36  1  0
  6 37  1  0
  6 38  1  0
  7 39  1  0
  7 40  1  0
  8 41  1  6
 12 42  1  0
 13 43  1  0
 15 44  1  0
 16 45  1  0
 18 46  1  0
 19 47  1  0
 21 48  1  0
 24 49  1  0
 26 50  1  0
 27 51  1  0
 28 52  1  0
 29 53  1  0
 30 54  1  0
 31 55  1  0
 32 56  1  0
M  END
>  <_MoleculeID>  (194) 
smi20

>  <_InputIndex>  (194) 
20

>  <_InputSMILES>  (194) 
OC(=O)[C@@H]1CCC[C@H]1C(=O)c1ccc(cc1)-c1ccc(NC(=O)Nc2ccccc2)cc1

>  <_InputInChIKey>  (194) 
BOZRFEQDOFSZBV-DHIUTWEWSA-N

>  <_SMILES>  (194) 
O=C(Nc1ccccc1)Nc1ccc(-c2ccc(C(=O)[C@@H]3CCC[C@H]3C(=O)O)cc2)cc1

>  <_InChIKey>  (194) 
BOZRFEQDOFSZBV-DHIUTWEWSA-N

$$$$
smi20_conf9
     RDKit          3D

 56 59  0  0  0  0  0  0  0  0999 V2000
   13.9681   -1.1376    7.8057 O   0  0  0  0  0  0  0  0  0  0  0  0
   13.4392   -1.3420    9.0402 C   0  0  0  0  0  0  0  0  0  0  0  0
   13.8095   -2.2189    9.8078 O   0  0  0  0  0  0  0  0  0  0  0  0
   12.3462   -0.3800    9.3658 C   0  0  2  0  0  0  0  0  0  0  0  0
   11.7588   -0.6250   10.7550 C   0  0  0  0  0  0  0  0  0  0  0  0
   10.4614    0.1682   10.7340 C   0  0  0  0  0  0  0  0  0  0  0  0
    9.9641    0.1059    9.2895 C   0  0  0  0  0  0  0  0  0  0  0  0
   11.1079   -0.5028    8.4600 C   0  0  1  0  0  0  0  0  0  0  0  0
   11.2618    0.1594    7.1319 C   0  0  0  0  0  0  0  0  0  0  0  0
   12.3133    0.7152    6.8250 O   0  0  0  0  0  0  0  0  0  0  0  0
   10.1417    0.1401    6.2002 C   0  0  0  0  0  0  0  0  0  0  0  0
    8.9428   -0.4902    6.5426 C   0  0  0  0  0  0  0  0  0  0  0  0
    7.8596   -0.5121    5.6515 C   0  0  0  0  0  0  0  0  0  0  0  0
    7.9291    0.0894    4.3854 C   0  0  0  0  0  0  0  0  0  0  0  0
    9.1568    0.7024    4.0688 C   0  0  0  0  0  0  0  0  0  0  0  0
   10.2519    0.7332    4.9431 C   0  0  0  0  0  0  0  0  0  0  0  0
    6.8250    0.0708    3.4675 C   0  0  0  0  0  0  0  0  0  0  0  0
    7.0468    0.0822    2.0881 C   0  0  0  0  0  0  0  0  0  0  0  0
    5.9735    0.0631    1.1851 C   0  0  0  0  0  0  0  0  0  0  0  0
    4.6394    0.0349    1.6199 C   0  0  0  0  0  0  0  0  0  0  0  0
    3.5669    0.0163    0.7280 N   0  0  0  0  0  0  0  0  0  0  0  0
    2.2252    0.0000    1.1308 C   0  0  0  0  0  0  0  0  0  0  0  0
    1.8311    0.0000    2.2943 O   0  0  0  0  0  0  0  0  0  0  0  0
    1.3950    0.0000    0.0000 N   0  0  0  0  0  0  0  0  0  0  0  0
    0.0000    0.0000    0.0000 C   0  0  0  0  0  0  0  0  0  0  0  0
   -0.7111    0.0195   -1.2025 C   0  0  0  0  0  0  0  0  0  0  0  0
   -2.1138    0.0186   -1.2108 C   0  0  0  0  0  0  0  0  0  0  0  0
   -2.8620    0.0013   -0.0236 C   0  0  0  0  0  0  0  0  0  0  0  0
   -2.1126   -0.0035    1.1688 C   0  0  0  0  0  0  0  0  0  0  0  0
   -0.7114   -0.0000    1.1992 C   0  0  0  0  0  0  0  0  0  0  0  0
    4.4534    0.0387    3.0158 C   0  0  0  0  0  0  0  0  0  0  0  0
    5.5113    0.0604    3.9350 C   0  0  0  0  0  0  0  0  0  0  0  0
   13.5708   -0.3914    7.3074 H   0  0  0  0  0  0  0  0  0  0  0  0
   12.7543    0.6386    9.3174 H   0  0  0  0  0  0  0  0  0  0  0  0
   11.5448   -1.6897   10.9145 H   0  0  0  0  0  0  0  0  0  0  0  0
   12.4260   -0.2922   11.5568 H   0  0  0  0  0  0  0  0  0  0  0  0
   10.6576    1.2114   11.0095 H   0  0  0  0  0  0  0  0  0  0  0  0
    9.7263   -0.2276   11.4414 H   0  0  0  0  0  0  0  0  0  0  0  0
    9.6771    1.1081    8.9499 H   0  0  0  0  0  0  0  0  0  0  0  0
    9.0707   -0.5256    9.2174 H   0  0  0  0  0  0  0  0  0  0  0  0
   10.8822   -1.5632    8.2812 H   0  0  0  0  0  0  0  0  0  0  0  0
    8.8362   -0.9772    7.5092 H   0  0  0  0  0  0  0  0  0  0  0  0
    6.9590   -1.0245    5.9804 H   0  0  0  0  0  0  0  0  0  0  0  0
    9.2592    1.1765    3.0935 H   0  0  0  0  0  0  0  0  0  0  0  0
   11.1808    1.2186    4.6528 H   0  0  0  0  0  0  0  0  0  0  0  0
    8.0609    0.1095    1.6963 H   0  0  0  0  0  0  0  0  0  0  0  0
    6.2180    0.0787    0.1259 H   0  0  0  0  0  0  0  0  0  0  0  0
    3.7722   -0.0001   -0.2656 H   0  0  0  0  0  0  0  0  0  0  0  0
    1.8474    0.0999   -0.9044 H   0  0  0  0  0  0  0  0  0  0  0  0
   -0.1814    0.0390   -2.1521 H   0  0  0  0  0  0  0  0  0  0  0  0
   -2.6026    0.0397   -2.1817 H   0  0  0  0  0  0  0  0  0  0  0  0
   -3.9439    0.0009   -0.0237 H   0  0  0  0  0  0  0  0  0  0  0  0
   -2.6514   -0.0101    2.1155 H   0  0  0  0  0  0  0  0  0  0  0  0
   -0.1765   -0.0031    2.1461 H   0  0  0  0  0  0  0  0  0  0  0  0
    3.4341    0.0242    3.3995 H   0  0  0  0  0  0  0  0  0  0  0  0
    5.3173    0.0634    5.0051 H   0  0  0  0  0  0  0  0  0  0  0  0
  1  2  1  0
  2  3  2  0
  4  2  1  0
  4  5  1  0
  5  6  1  0
  6  7  1  0
  7  8  1  0
  8  9  1  0
  9 10  2  0
  9 11  1  0
 11 12  2  0
 12 13  1  0
 13 14  2  0
 14 15  1  0
 15 16  2  0
 14 17  1  0
 17 18  2  0
 18 19  1  0
 19 20  2  0
 20 21  1  0
 21 22  1  0
 22 23  2  0
 22 24  1  0
 24 25  1  0
 25 26  2  0
 26 27  1  0
 27 28  2  0
 28 29  1  0
 29 30  2  0
 20 31  1  0
 31 32  2  0
  8  4  1  0
 16 11  1  0
 32 17  1  0
 30 25  1  0
  1 33  1  0
  4 34  1  1
  5 35  1  0
  5 36  1  0
  6 37  1  0
  6 38  1  0
  7 39  1  0
  7 40  1  0
  8 41  1  6
 12 42  1  0
 13 43  1  0
 15 44  1  0
 16 45  1  0
 18 46  1  0
 19 47  1  0
 21 48  1  0
 24 49  1  0
 26 50  1  0
 27 51  1  0
 28 52  1  0
 29 53  1  0
 30 54  1  0
 31 55  1  0
 32 56  1  0
M  END
>  <_MoleculeID>  (195) 
smi20

>  <_InputIndex>  (195) 
20

>  <_InputSMILES>  (195) 
OC(=O)[C@@H]1CCC[C@H]1C(=O)c1ccc(cc1)-c1ccc(NC(=O)Nc2ccccc2)cc1

>  <_InputInChIKey>  (195) 
BOZRFEQDOFSZBV-DHIUTWEWSA-N

>  <_SMILES>  (195) 
O=C(Nc1ccccc1)Nc1ccc(-c2ccc(C(=O)[C@@H]3CCC[C@H]3C(=O)O)cc2)cc1

>  <_InChIKey>  (195) 
BOZRFEQDOFSZBV-DHIUTWEWSA-N

$$$$
smi21_conf0
     RDKit          3D

 49 51  0  0  0  0  0  0  0  0999 V2000
   -2.0252    0.0817   -1.4313 C   0  0  0  0  0  0  0  0  0  0  0  0
   -0.5916    0.0381   -1.2540 N   0  0  0  0  0  0  0  0  0  0  0  0
    0.0000    0.0000    0.0000 C   0  0  0  0  0  0  0  0  0  0  0  0
   -0.6354    0.0000    1.0524 O   0  0  0  0  0  0  0  0  0  0  0  0
    1.4570   -0.0000    0.0000 C   0  0  0  0  0  0  0  0  0  0  0  0
    2.1681   -0.4113   -1.1301 C   0  0  0  0  0  0  0  0  0  0  0  0
    3.5708   -0.4132   -1.1383 C   0  0  0  0  0  0  0  0  0  0  0  0
    4.3190   -0.0089   -0.0219 C   0  0  0  0  0  0  0  0  0  0  0  0
    3.5696    0.3852    1.1035 C   0  0  0  0  0  0  0  0  0  0  0  0
    4.2596    0.7893    2.2466 N   0  0  0  0  0  0  0  0  0  0  0  0
    5.6524    0.8423    2.3863 C   0  0  0  0  0  0  0  0  0  0  0  0
    6.4333    0.5279    1.4866 O   0  0  0  0  0  0  0  0  0  0  0  0
    6.0523    1.2837    3.6189 N   0  0  0  0  0  0  0  0  0  0  0  0
    7.4864    1.3942    3.9002 C   0  0  0  0  0  0  0  0  0  0  0  0
    7.8421    2.7471    4.5127 C   0  0  0  0  0  0  0  0  0  0  0  0
    7.0016    3.0430    5.7611 C   0  0  0  0  0  0  0  0  0  0  0  0
    5.5135    2.9196    5.4056 C   0  0  0  0  0  0  0  0  0  0  0  0
    5.1721    1.5733    4.7610 C   0  0  0  0  0  0  0  0  0  0  0  0
    7.2688    2.0993    6.7851 O   0  0  0  0  0  0  0  0  0  0  0  0
    8.3555    2.3389    7.5945 C   0  0  0  0  0  0  0  0  0  0  0  0
    9.6168    1.8413    7.2573 C   0  0  0  0  0  0  0  0  0  0  0  0
   10.7296    2.0822    8.0766 C   0  0  0  0  0  0  0  0  0  0  0  0
   10.6294    2.8245    9.2634 C   0  0  0  0  0  0  0  0  0  0  0  0
    9.3411    3.2978    9.5790 C   0  0  0  0  0  0  0  0  0  0  0  0
    8.2160    3.0662    8.7759 C   0  0  0  0  0  0  0  0  0  0  0  0
    6.6721    3.6767    9.2291 Cl  0  0  0  0  0  0  0  0  0  0  0  0
    2.1684    0.3918    1.1334 C   0  0  0  0  0  0  0  0  0  0  0  0
   -2.5227   -0.5106   -0.6590 H   0  0  0  0  0  0  0  0  0  0  0  0
   -2.2658   -0.3145   -2.4205 H   0  0  0  0  0  0  0  0  0  0  0  0
   -2.3505    1.1228   -1.3604 H   0  0  0  0  0  0  0  0  0  0  0  0
   -0.0208    0.1083   -2.0891 H   0  0  0  0  0  0  0  0  0  0  0  0
    1.6384   -0.7401   -2.0213 H   0  0  0  0  0  0  0  0  0  0  0  0
    4.0596   -0.7504   -2.0489 H   0  0  0  0  0  0  0  0  0  0  0  0
    5.4009   -0.0086   -0.0221 H   0  0  0  0  0  0  0  0  0  0  0  0
    3.6871    1.1981    2.9787 H   0  0  0  0  0  0  0  0  0  0  0  0
    7.7435    0.5793    4.5876 H   0  0  0  0  0  0  0  0  0  0  0  0
    8.0759    1.2408    2.9906 H   0  0  0  0  0  0  0  0  0  0  0  0
    7.6715    3.5365    3.7702 H   0  0  0  0  0  0  0  0  0  0  0  0
    8.9104    2.7481    4.7529 H   0  0  0  0  0  0  0  0  0  0  0  0
    7.1646    4.0671    6.1161 H   0  0  0  0  0  0  0  0  0  0  0  0
    4.9030    3.0406    6.3082 H   0  0  0  0  0  0  0  0  0  0  0  0
    5.2439    3.7262    4.7123 H   0  0  0  0  0  0  0  0  0  0  0  0
    5.2945    0.7546    5.4793 H   0  0  0  0  0  0  0  0  0  0  0  0
    4.1211    1.6026    4.4711 H   0  0  0  0  0  0  0  0  0  0  0  0
    9.7502    1.2547    6.3513 H   0  0  0  0  0  0  0  0  0  0  0  0
   11.6795    1.6610    7.7569 H   0  0  0  0  0  0  0  0  0  0  0  0
   11.4840    3.0132    9.8995 H   0  0  0  0  0  0  0  0  0  0  0  0
    9.2141    3.8736   10.4949 H   0  0  0  0  0  0  0  0  0  0  0  0
    1.6335    0.7041    2.0273 H   0  0  0  0  0  0  0  0  0  0  0  0
  1  2  1  0
  2  3  1  0
  3  4  2  0
  3  5  1  0
  5  6  2  0
  6  7  1  0
  7  8  2  0
  8  9  1  0
  9 10  1  0
 10 11  1  0
 11 12  2  0
 11 13  1  0
 13 14  1  0
 14 15  1  0
 15 16  1  0
 16 17  1  0
 17 18  1  0
 16 19  1  0
 19 20  1  0
 20 21  2  0
 21 22  1  0
 22 23  2  0
 23 24  1  0
 24 25  2  0
 25 26  1  0
  9 27  2  0
 27  5  1  0
 18 13  1  0
 25 20  1  0
  1 28  1  0
  1 29  1  0
  1 30  1  0
  2 31  1  0
  6 32  1  0
  7 33  1  0
  8 34  1  0
 10 35  1  0
 14 36  1  0
 14 37  1  0
 15 38  1  0
 15 39  1  0
 16 40  1  0
 17 41  1  0
 17 42  1  0
 18 43  1  0
 18 44  1  0
 21 45  1  0
 22 46  1  0
 23 47  1  0
 24 48  1  0
 27 49  1  0
M  END
>  <_MoleculeID>  (196) 
smi21

>  <_InputIndex>  (196) 
21

>  <_InputSMILES>  (196) 
CNC(=O)c1cccc(NC(=O)N2CCC(CC2)Oc2ccccc2Cl)c1

>  <_InputInChIKey>  (196) 
DPYTYQFYDLYWHZ-UHFFFAOYSA-N

>  <_SMILES>  (196) 
CNC(=O)c1cccc(NC(=O)N2CCC(Oc3ccccc3Cl)CC2)c1

>  <_InChIKey>  (196) 
DPYTYQFYDLYWHZ-UHFFFAOYSA-N

$$$$
smi21_conf1
     RDKit          3D

 49 51  0  0  0  0  0  0  0  0999 V2000
   -2.0252    0.0817   -1.4313 C   0  0  0  0  0  0  0  0  0  0  0  0
   -0.5916    0.0381   -1.2540 N   0  0  0  0  0  0  0  0  0  0  0  0
    0.0000    0.0000    0.0000 C   0  0  0  0  0  0  0  0  0  0  0  0
   -0.6354    0.0000    1.0524 O   0  0  0  0  0  0  0  0  0  0  0  0
    1.4570    0.0000    0.0000 C   0  0  0  0  0  0  0  0  0  0  0  0
    2.1681    0.4113    1.1301 C   0  0  0  0  0  0  0  0  0  0  0  0
    3.5708    0.4132    1.1383 C   0  0  0  0  0  0  0  0  0  0  0  0
    4.3190    0.0089    0.0219 C   0  0  0  0  0  0  0  0  0  0  0  0
    3.5696   -0.3852   -1.1035 C   0  0  0  0  0  0  0  0  0  0  0  0
    4.2596   -0.7893   -2.2466 N   0  0  0  0  0  0  0  0  0  0  0  0
    3.6765   -1.2107   -3.4486 C   0  0  0  0  0  0  0  0  0  0  0  0
    2.4584   -1.2690   -3.6237 O   0  0  0  0  0  0  0  0  0  0  0  0
    4.5979   -1.5432   -4.4050 N   0  0  0  0  0  0  0  0  0  0  0  0
    4.1249   -1.9958   -5.7163 C   0  0  0  0  0  0  0  0  0  0  0  0
    4.8236   -3.2794   -6.1595 C   0  0  0  0  0  0  0  0  0  0  0  0
    6.3502   -3.1319   -6.1345 C   0  0  0  0  0  0  0  0  0  0  0  0
    6.7866   -2.6639   -4.7393 C   0  0  0  0  0  0  0  0  0  0  0  0
    6.0565   -1.3957   -4.2887 C   0  0  0  0  0  0  0  0  0  0  0  0
    6.7776   -2.1471   -7.0610 O   0  0  0  0  0  0  0  0  0  0  0  0
    7.7018   -2.5303   -8.0057 C   0  0  0  0  0  0  0  0  0  0  0  0
    9.0703   -2.4146   -7.7494 C   0  0  0  0  0  0  0  0  0  0  0  0
   10.0186   -2.8040   -8.7069 C   0  0  0  0  0  0  0  0  0  0  0  0
    9.6415   -3.3202   -9.9563 C   0  0  0  0  0  0  0  0  0  0  0  0
    8.2548   -3.4090  -10.1854 C   0  0  0  0  0  0  0  0  0  0  0  0
    7.2911   -3.0231   -9.2437 C   0  0  0  0  0  0  0  0  0  0  0  0
    5.6124   -3.1603   -9.5974 Cl  0  0  0  0  0  0  0  0  0  0  0  0
    2.1684   -0.3918   -1.1334 C   0  0  0  0  0  0  0  0  0  0  0  0
   -2.5227   -0.5106   -0.6590 H   0  0  0  0  0  0  0  0  0  0  0  0
   -2.2658   -0.3145   -2.4205 H   0  0  0  0  0  0  0  0  0  0  0  0
   -2.3505    1.1228   -1.3604 H   0  0  0  0  0  0  0  0  0  0  0  0
   -0.0208    0.1083   -2.0891 H   0  0  0  0  0  0  0  0  0  0  0  0
    1.6384    0.7401    2.0213 H   0  0  0  0  0  0  0  0  0  0  0  0
    4.0596    0.7504    2.0489 H   0  0  0  0  0  0  0  0  0  0  0  0
    5.4009    0.0086    0.0221 H   0  0  0  0  0  0  0  0  0  0  0  0
    5.2625   -0.6327   -2.2278 H   0  0  0  0  0  0  0  0  0  0  0  0
    4.3208   -1.1841   -6.4271 H   0  0  0  0  0  0  0  0  0  0  0  0
    3.0421   -2.1561   -5.7071 H   0  0  0  0  0  0  0  0  0  0  0  0
    4.5317   -4.0994   -5.4918 H   0  0  0  0  0  0  0  0  0  0  0  0
    4.4733   -3.5346   -7.1650 H   0  0  0  0  0  0  0  0  0  0  0  0
    6.8451   -4.0916   -6.3224 H   0  0  0  0  0  0  0  0  0  0  0  0
    7.8655   -2.4683   -4.7319 H   0  0  0  0  0  0  0  0  0  0  0  0
    6.5900   -3.4653   -4.0161 H   0  0  0  0  0  0  0  0  0  0  0  0
    6.3451   -0.5385   -4.9077 H   0  0  0  0  0  0  0  0  0  0  0  0
    6.3663   -1.1819   -3.2651 H   0  0  0  0  0  0  0  0  0  0  0  0
    9.4182   -2.0155   -6.7994 H   0  0  0  0  0  0  0  0  0  0  0  0
   11.0663   -2.6818   -8.4435 H   0  0  0  0  0  0  0  0  0  0  0  0
   10.3683   -3.6218  -10.6988 H   0  0  0  0  0  0  0  0  0  0  0  0
    7.9153   -3.7979  -11.1446 H   0  0  0  0  0  0  0  0  0  0  0  0
    1.6335   -0.7041   -2.0273 H   0  0  0  0  0  0  0  0  0  0  0  0
  1  2  1  0
  2  3  1  0
  3  4  2  0
  3  5  1  0
  5  6  2  0
  6  7  1  0
  7  8  2  0
  8  9  1  0
  9 10  1  0
 10 11  1  0
 11 12  2  0
 11 13  1  0
 13 14  1  0
 14 15  1  0
 15 16  1  0
 16 17  1  0
 17 18  1  0
 16 19  1  0
 19 20  1  0
 20 21  2  0
 21 22  1  0
 22 23  2  0
 23 24  1  0
 24 25  2  0
 25 26  1  0
  9 27  2  0
 27  5  1  0
 18 13  1  0
 25 20  1  0
  1 28  1  0
  1 29  1  0
  1 30  1  0
  2 31  1  0
  6 32  1  0
  7 33  1  0
  8 34  1  0
 10 35  1  0
 14 36  1  0
 14 37  1  0
 15 38  1  0
 15 39  1  0
 16 40  1  0
 17 41  1  0
 17 42  1  0
 18 43  1  0
 18 44  1  0
 21 45  1  0
 22 46  1  0
 23 47  1  0
 24 48  1  0
 27 49  1  0
M  END
>  <_MoleculeID>  (197) 
smi21

>  <_InputIndex>  (197) 
21

>  <_InputSMILES>  (197) 
CNC(=O)c1cccc(NC(=O)N2CCC(CC2)Oc2ccccc2Cl)c1

>  <_InputInChIKey>  (197) 
DPYTYQFYDLYWHZ-UHFFFAOYSA-N

>  <_SMILES>  (197) 
CNC(=O)c1cccc(NC(=O)N2CCC(Oc3ccccc3Cl)CC2)c1

>  <_InChIKey>  (197) 
DPYTYQFYDLYWHZ-UHFFFAOYSA-N

$$$$
smi21_conf2
     RDKit          3D

 49 51  0  0  0  0  0  0  0  0999 V2000
   -2.0252    0.0817   -1.4313 C   0  0  0  0  0  0  0  0  0  0  0  0
   -0.5916    0.0381   -1.2540 N   0  0  0  0  0  0  0  0  0  0  0  0
    0.0000    0.0000    0.0000 C   0  0  0  0  0  0  0  0  0  0  0  0
   -0.6354    0.0000    1.0524 O   0  0  0  0  0  0  0  0  0  0  0  0
    1.4570    0.0000    0.0000 C   0  0  0  0  0  0  0  0  0  0  0  0
    2.1681    0.4113    1.1301 C   0  0  0  0  0  0  0  0  0  0  0  0
    3.5708    0.4132    1.1383 C   0  0  0  0  0  0  0  0  0  0  0  0
    4.3190    0.0089    0.0219 C   0  0  0  0  0  0  0  0  0  0  0  0
    3.5696   -0.3852   -1.1035 C   0  0  0  0  0  0  0  0  0  0  0  0
    4.2596   -0.7893   -2.2466 N   0  0  0  0  0  0  0  0  0  0  0  0
    5.6524   -0.8423   -2.3863 C   0  0  0  0  0  0  0  0  0  0  0  0
    6.4333   -0.5279   -1.4866 O   0  0  0  0  0  0  0  0  0  0  0  0
    6.0523   -1.2837   -3.6189 N   0  0  0  0  0  0  0  0  0  0  0  0
    7.4864   -1.3942   -3.9002 C   0  0  0  0  0  0  0  0  0  0  0  0
    7.8566   -0.7367   -5.2279 C   0  0  0  0  0  0  0  0  0  0  0  0
    7.0143   -1.2850   -6.3866 C   0  0  0  0  0  0  0  0  0  0  0  0
    5.5264   -1.1371   -6.0397 C   0  0  0  0  0  0  0  0  0  0  0  0
    5.1707   -1.7693   -4.6913 C   0  0  0  0  0  0  0  0  0  0  0  0
    7.2647   -2.6668   -6.5832 O   0  0  0  0  0  0  0  0  0  0  0  0
    6.8489   -3.2192   -7.7729 C   0  0  0  0  0  0  0  0  0  0  0  0
    5.5696   -3.7678   -7.8934 C   0  0  0  0  0  0  0  0  0  0  0  0
    5.1380   -4.3318   -9.1031 C   0  0  0  0  0  0  0  0  0  0  0  0
    5.9634   -4.3739  -10.2375 C   0  0  0  0  0  0  0  0  0  0  0  0
    7.2502   -3.8251  -10.0753 C   0  0  0  0  0  0  0  0  0  0  0  0
    7.7020   -3.2595   -8.8751 C   0  0  0  0  0  0  0  0  0  0  0  0
    9.2907   -2.6091   -8.7534 Cl  0  0  0  0  0  0  0  0  0  0  0  0
    2.1684   -0.3918   -1.1334 C   0  0  0  0  0  0  0  0  0  0  0  0
   -2.5227   -0.5106   -0.6590 H   0  0  0  0  0  0  0  0  0  0  0  0
   -2.2658   -0.3145   -2.4205 H   0  0  0  0  0  0  0  0  0  0  0  0
   -2.3505    1.1228   -1.3604 H   0  0  0  0  0  0  0  0  0  0  0  0
   -0.0208    0.1083   -2.0891 H   0  0  0  0  0  0  0  0  0  0  0  0
    1.6384    0.7401    2.0213 H   0  0  0  0  0  0  0  0  0  0  0  0
    4.0596    0.7504    2.0489 H   0  0  0  0  0  0  0  0  0  0  0  0
    5.4009    0.0086    0.0221 H   0  0  0  0  0  0  0  0  0  0  0  0
    3.6871   -1.1981   -2.9787 H   0  0  0  0  0  0  0  0  0  0  0  0
    7.7299   -2.4632   -3.9173 H   0  0  0  0  0  0  0  0  0  0  0  0
    8.0780   -0.9462   -3.0954 H   0  0  0  0  0  0  0  0  0  0  0  0
    7.6995    0.3463   -5.1516 H   0  0  0  0  0  0  0  0  0  0  0  0
    8.9237   -0.9013   -5.4099 H   0  0  0  0  0  0  0  0  0  0  0  0
    7.1888   -0.7174   -7.3078 H   0  0  0  0  0  0  0  0  0  0  0  0
    4.9133   -1.6055   -6.8188 H   0  0  0  0  0  0  0  0  0  0  0  0
    5.2703   -0.0705   -6.0129 H   0  0  0  0  0  0  0  0  0  0  0  0
    5.2793   -2.8591   -4.7305 H   0  0  0  0  0  0  0  0  0  0  0  0
    4.1215   -1.5499   -4.4898 H   0  0  0  0  0  0  0  0  0  0  0  0
    4.8906   -3.7668   -7.0439 H   0  0  0  0  0  0  0  0  0  0  0  0
    4.1328   -4.7453   -9.1252 H   0  0  0  0  0  0  0  0  0  0  0  0
    5.6362   -4.8079  -11.1729 H   0  0  0  0  0  0  0  0  0  0  0  0
    7.9283   -3.8420  -10.9276 H   0  0  0  0  0  0  0  0  0  0  0  0
    1.6335   -0.7041   -2.0273 H   0  0  0  0  0  0  0  0  0  0  0  0
  1  2  1  0
  2  3  1  0
  3  4  2  0
  3  5  1  0
  5  6  2  0
  6  7  1  0
  7  8  2  0
  8  9  1  0
  9 10  1  0
 10 11  1  0
 11 12  2  0
 11 13  1  0
 13 14  1  0
 14 15  1  0
 15 16  1  0
 16 17  1  0
 17 18  1  0
 16 19  1  0
 19 20  1  0
 20 21  2  0
 21 22  1  0
 22 23  2  0
 23 24  1  0
 24 25  2  0
 25 26  1  0
  9 27  2  0
 27  5  1  0
 18 13  1  0
 25 20  1  0
  1 28  1  0
  1 29  1  0
  1 30  1  0
  2 31  1  0
  6 32  1  0
  7 33  1  0
  8 34  1  0
 10 35  1  0
 14 36  1  0
 14 37  1  0
 15 38  1  0
 15 39  1  0
 16 40  1  0
 17 41  1  0
 17 42  1  0
 18 43  1  0
 18 44  1  0
 21 45  1  0
 22 46  1  0
 23 47  1  0
 24 48  1  0
 27 49  1  0
M  END
>  <_MoleculeID>  (198) 
smi21

>  <_InputIndex>  (198) 
21

>  <_InputSMILES>  (198) 
CNC(=O)c1cccc(NC(=O)N2CCC(CC2)Oc2ccccc2Cl)c1

>  <_InputInChIKey>  (198) 
DPYTYQFYDLYWHZ-UHFFFAOYSA-N

>  <_SMILES>  (198) 
CNC(=O)c1cccc(NC(=O)N2CCC(Oc3ccccc3Cl)CC2)c1

>  <_InChIKey>  (198) 
DPYTYQFYDLYWHZ-UHFFFAOYSA-N

$$$$
smi21_conf3
     RDKit          3D

 49 51  0  0  0  0  0  0  0  0999 V2000
   -2.0252    0.0817   -1.4313 C   0  0  0  0  0  0  0  0  0  0  0  0
   -0.5916    0.0381   -1.2540 N   0  0  0  0  0  0  0  0  0  0  0  0
    0.0000    0.0000    0.0000 C   0  0  0  0  0  0  0  0  0  0  0  0
   -0.6354    0.0000    1.0524 O   0  0  0  0  0  0  0  0  0  0  0  0
    1.4570    0.0000    0.0000 C   0  0  0  0  0  0  0  0  0  0  0  0
    2.1681    0.4113    1.1301 C   0  0  0  0  0  0  0  0  0  0  0  0
    3.5708    0.4132    1.1383 C   0  0  0  0  0  0  0  0  0  0  0  0
    4.3190    0.0089    0.0219 C   0  0  0  0  0  0  0  0  0  0  0  0
    3.5696   -0.3852   -1.1035 C   0  0  0  0  0  0  0  0  0  0  0  0
    4.2596   -0.7893   -2.2466 N   0  0  0  0  0  0  0  0  0  0  0  0
    5.6524   -0.8423   -2.3863 C   0  0  0  0  0  0  0  0  0  0  0  0
    6.4333   -0.5279   -1.4866 O   0  0  0  0  0  0  0  0  0  0  0  0
    6.0523   -1.2837   -3.6189 N   0  0  0  0  0  0  0  0  0  0  0  0
    7.4864   -1.3942   -3.9002 C   0  0  0  0  0  0  0  0  0  0  0  0
    7.8421   -2.7471   -4.5127 C   0  0  0  0  0  0  0  0  0  0  0  0
    7.0016   -3.0430   -5.7611 C   0  0  0  0  0  0  0  0  0  0  0  0
    5.5135   -2.9196   -5.4056 C   0  0  0  0  0  0  0  0  0  0  0  0
    5.1721   -1.5733   -4.7610 C   0  0  0  0  0  0  0  0  0  0  0  0
    7.2688   -2.0993   -6.7851 O   0  0  0  0  0  0  0  0  0  0  0  0
    6.8547   -2.4171   -8.0582 C   0  0  0  0  0  0  0  0  0  0  0  0
    6.1994   -3.6247   -8.3121 C   0  0  0  0  0  0  0  0  0  0  0  0
    5.7733   -3.9555   -9.6070 C   0  0  0  0  0  0  0  0  0  0  0  0
    5.9854   -3.0992  -10.6985 C   0  0  0  0  0  0  0  0  0  0  0  0
    6.6612   -1.8982  -10.4082 C   0  0  0  0  0  0  0  0  0  0  0  0
    7.0976   -1.5499   -9.1227 C   0  0  0  0  0  0  0  0  0  0  0  0
    7.9192   -0.0631   -8.8463 Cl  0  0  0  0  0  0  0  0  0  0  0  0
    2.1684   -0.3918   -1.1334 C   0  0  0  0  0  0  0  0  0  0  0  0
   -2.5227   -0.5106   -0.6590 H   0  0  0  0  0  0  0  0  0  0  0  0
   -2.2658   -0.3145   -2.4205 H   0  0  0  0  0  0  0  0  0  0  0  0
   -2.3505    1.1228   -1.3604 H   0  0  0  0  0  0  0  0  0  0  0  0
   -0.0208    0.1083   -2.0891 H   0  0  0  0  0  0  0  0  0  0  0  0
    1.6384    0.7401    2.0213 H   0  0  0  0  0  0  0  0  0  0  0  0
    4.0596    0.7504    2.0489 H   0  0  0  0  0  0  0  0  0  0  0  0
    5.4009    0.0086    0.0221 H   0  0  0  0  0  0  0  0  0  0  0  0
    3.6871   -1.1981   -2.9787 H   0  0  0  0  0  0  0  0  0  0  0  0
    7.7435   -0.5793   -4.5876 H   0  0  0  0  0  0  0  0  0  0  0  0
    8.0759   -1.2408   -2.9906 H   0  0  0  0  0  0  0  0  0  0  0  0
    7.6715   -3.5365   -3.7702 H   0  0  0  0  0  0  0  0  0  0  0  0
    8.9104   -2.7481   -4.7529 H   0  0  0  0  0  0  0  0  0  0  0  0
    7.1646   -4.0671   -6.1161 H   0  0  0  0  0  0  0  0  0  0  0  0
    4.9030   -3.0406   -6.3082 H   0  0  0  0  0  0  0  0  0  0  0  0
    5.2439   -3.7262   -4.7123 H   0  0  0  0  0  0  0  0  0  0  0  0
    5.2945   -0.7546   -5.4793 H   0  0  0  0  0  0  0  0  0  0  0  0
    4.1211   -1.6026   -4.4711 H   0  0  0  0  0  0  0  0  0  0  0  0
    6.0140   -4.3281   -7.5036 H   0  0  0  0  0  0  0  0  0  0  0  0
    5.2746   -4.9132   -9.7340 H   0  0  0  0  0  0  0  0  0  0  0  0
    5.6594   -3.3491  -11.6993 H   0  0  0  0  0  0  0  0  0  0  0  0
    6.8541   -1.2053  -11.2263 H   0  0  0  0  0  0  0  0  0  0  0  0
    1.6335   -0.7041   -2.0273 H   0  0  0  0  0  0  0  0  0  0  0  0
  1  2  1  0
  2  3  1  0
  3  4  2  0
  3  5  1  0
  5  6  2  0
  6  7  1  0
  7  8  2  0
  8  9  1  0
  9 10  1  0
 10 11  1  0
 11 12  2  0
 11 13  1  0
 13 14  1  0
 14 15  1  0
 15 16  1  0
 16 17  1  0
 17 18  1  0
 16 19  1  0
 19 20  1  0
 20 21  2  0
 21 22  1  0
 22 23  2  0
 23 24  1  0
 24 25  2  0
 25 26  1  0
  9 27  2  0
 27  5  1  0
 18 13  1  0
 25 20  1  0
  1 28  1  0
  1 29  1  0
  1 30  1  0
  2 31  1  0
  6 32  1  0
  7 33  1  0
  8 34  1  0
 10 35  1  0
 14 36  1  0
 14 37  1  0
 15 38  1  0
 15 39  1  0
 16 40  1  0
 17 41  1  0
 17 42  1  0
 18 43  1  0
 18 44  1  0
 21 45  1  0
 22 46  1  0
 23 47  1  0
 24 48  1  0
 27 49  1  0
M  END
>  <_MoleculeID>  (199) 
smi21

>  <_InputIndex>  (199) 
21

>  <_InputSMILES>  (199) 
CNC(=O)c1cccc(NC(=O)N2CCC(CC2)Oc2ccccc2Cl)c1

>  <_InputInChIKey>  (199) 
DPYTYQFYDLYWHZ-UHFFFAOYSA-N

>  <_SMILES>  (199) 
CNC(=O)c1cccc(NC(=O)N2CCC(Oc3ccccc3Cl)CC2)c1

>  <_InChIKey>  (199) 
DPYTYQFYDLYWHZ-UHFFFAOYSA-N

$$$$
smi21_conf4
     RDKit          3D

 49 51  0  0  0  0  0  0  0  0999 V2000
   -2.0252    0.0817   -1.4313 C   0  0  0  0  0  0  0  0  0  0  0  0
   -0.5916    0.0381   -1.2540 N   0  0  0  0  0  0  0  0  0  0  0  0
    0.0000    0.0000    0.0000 C   0  0  0  0  0  0  0  0  0  0  0  0
   -0.6354    0.0000    1.0524 O   0  0  0  0  0  0  0  0  0  0  0  0
    1.4570   -0.0000    0.0000 C   0  0  0  0  0  0  0  0  0  0  0  0
    2.1681   -0.4113   -1.1301 C   0  0  0  0  0  0  0  0  0  0  0  0
    3.5708   -0.4132   -1.1383 C   0  0  0  0  0  0  0  0  0  0  0  0
    4.3190   -0.0089   -0.0219 C   0  0  0  0  0  0  0  0  0  0  0  0
    3.5696    0.3852    1.1035 C   0  0  0  0  0  0  0  0  0  0  0  0
    4.2596    0.7893    2.2466 N   0  0  0  0  0  0  0  0  0  0  0  0
    3.6765    1.2107    3.4486 C   0  0  0  0  0  0  0  0  0  0  0  0
    2.4584    1.2690    3.6237 O   0  0  0  0  0  0  0  0  0  0  0  0
    4.5979    1.5432    4.4050 N   0  0  0  0  0  0  0  0  0  0  0  0
    4.1765    1.9997    5.7273 C   0  0  0  0  0  0  0  0  0  0  0  0
    5.1932    1.6240    6.8010 C   0  0  0  0  0  0  0  0  0  0  0  0
    6.5900    2.1760    6.4848 C   0  0  0  0  0  0  0  0  0  0  0  0
    6.8237    2.4228    4.9897 C   0  0  0  0  0  0  0  0  0  0  0  0
    6.0292    1.4507    4.1298 C   0  0  0  0  0  0  0  0  0  0  0  0
    6.7983    3.3893    7.1886 O   0  0  0  0  0  0  0  0  0  0  0  0
    8.1010    3.7687    7.4178 C   0  0  0  0  0  0  0  0  0  0  0  0
    8.7818    4.5672    6.4953 C   0  0  0  0  0  0  0  0  0  0  0  0
   10.1094    4.9590    6.7223 C   0  0  0  0  0  0  0  0  0  0  0  0
   10.8108    4.5689    7.8737 C   0  0  0  0  0  0  0  0  0  0  0  0
   10.0985    3.7531    8.7738 C   0  0  0  0  0  0  0  0  0  0  0  0
    8.7730    3.3482    8.5649 C   0  0  0  0  0  0  0  0  0  0  0  0
    7.9684    2.3483    9.7114 Cl  0  0  0  0  0  0  0  0  0  0  0  0
    2.1684    0.3918    1.1334 C   0  0  0  0  0  0  0  0  0  0  0  0
   -2.5227   -0.5106   -0.6590 H   0  0  0  0  0  0  0  0  0  0  0  0
   -2.2658   -0.3145   -2.4205 H   0  0  0  0  0  0  0  0  0  0  0  0
   -2.3505    1.1228   -1.3604 H   0  0  0  0  0  0  0  0  0  0  0  0
   -0.0208    0.1083   -2.0891 H   0  0  0  0  0  0  0  0  0  0  0  0
    1.6384   -0.7401   -2.0213 H   0  0  0  0  0  0  0  0  0  0  0  0
    4.0596   -0.7504   -2.0489 H   0  0  0  0  0  0  0  0  0  0  0  0
    5.4009   -0.0086   -0.0221 H   0  0  0  0  0  0  0  0  0  0  0  0
    5.2625    0.6327    2.2278 H   0  0  0  0  0  0  0  0  0  0  0  0
    3.1929    1.5765    5.9596 H   0  0  0  0  0  0  0  0  0  0  0  0
    4.0581    3.0884    5.6728 H   0  0  0  0  0  0  0  0  0  0  0  0
    5.2521    0.5288    6.8460 H   0  0  0  0  0  0  0  0  0  0  0  0
    4.8467    1.9740    7.7799 H   0  0  0  0  0  0  0  0  0  0  0  0
    7.3370    1.4682    6.8615 H   0  0  0  0  0  0  0  0  0  0  0  0
    7.8943    2.3388    4.7686 H   0  0  0  0  0  0  0  0  0  0  0  0
    6.5451    3.4526    4.7294 H   0  0  0  0  0  0  0  0  0  0  0  0
    6.3335    0.4174    4.3342 H   0  0  0  0  0  0  0  0  0  0  0  0
    6.2045    1.6375    3.0644 H   0  0  0  0  0  0  0  0  0  0  0  0
    8.2877    4.8935    5.5831 H   0  0  0  0  0  0  0  0  0  0  0  0
   10.5801    5.5758    5.9608 H   0  0  0  0  0  0  0  0  0  0  0  0
   11.8349    4.8676    8.0539 H   0  0  0  0  0  0  0  0  0  0  0  0
   10.6053    3.4202    9.6787 H   0  0  0  0  0  0  0  0  0  0  0  0
    1.6335    0.7041    2.0273 H   0  0  0  0  0  0  0  0  0  0  0  0
  1  2  1  0
  2  3  1  0
  3  4  2  0
  3  5  1  0
  5  6  2  0
  6  7  1  0
  7  8  2  0
  8  9  1  0
  9 10  1  0
 10 11  1  0
 11 12  2  0
 11 13  1  0
 13 14  1  0
 14 15  1  0
 15 16  1  0
 16 17  1  0
 17 18  1  0
 16 19  1  0
 19 20  1  0
 20 21  2  0
 21 22  1  0
 22 23  2  0
 23 24  1  0
 24 25  2  0
 25 26  1  0
  9 27  2  0
 27  5  1  0
 18 13  1  0
 25 20  1  0
  1 28  1  0
  1 29  1  0
  1 30  1  0
  2 31  1  0
  6 32  1  0
  7 33  1  0
  8 34  1  0
 10 35  1  0
 14 36  1  0
 14 37  1  0
 15 38  1  0
 15 39  1  0
 16 40  1  0
 17 41  1  0
 17 42  1  0
 18 43  1  0
 18 44  1  0
 21 45  1  0
 22 46  1  0
 23 47  1  0
 24 48  1  0
 27 49  1  0
M  END
>  <_MoleculeID>  (200) 
smi21

>  <_InputIndex>  (200) 
21

>  <_InputSMILES>  (200) 
CNC(=O)c1cccc(NC(=O)N2CCC(CC2)Oc2ccccc2Cl)c1

>  <_InputInChIKey>  (200) 
DPYTYQFYDLYWHZ-UHFFFAOYSA-N

>  <_SMILES>  (200) 
CNC(=O)c1cccc(NC(=O)N2CCC(Oc3ccccc3Cl)CC2)c1

>  <_InChIKey>  (200) 
DPYTYQFYDLYWHZ-UHFFFAOYSA-N

$$$$
smi21_conf5
     RDKit          3D

 49 51  0  0  0  0  0  0  0  0999 V2000
   -2.0252    0.0817   -1.4313 C   0  0  0  0  0  0  0  0  0  0  0  0
   -0.5916    0.0381   -1.2540 N   0  0  0  0  0  0  0  0  0  0  0  0
    0.0000    0.0000    0.0000 C   0  0  0  0  0  0  0  0  0  0  0  0
   -0.6354    0.0000    1.0524 O   0  0  0  0  0  0  0  0  0  0  0  0
    1.4570   -0.0000    0.0000 C   0  0  0  0  0  0  0  0  0  0  0  0
    2.1681   -0.4113   -1.1301 C   0  0  0  0  0  0  0  0  0  0  0  0
    3.5708   -0.4132   -1.1383 C   0  0  0  0  0  0  0  0  0  0  0  0
    4.3190   -0.0089   -0.0219 C   0  0  0  0  0  0  0  0  0  0  0  0
    3.5696    0.3852    1.1035 C   0  0  0  0  0  0  0  0  0  0  0  0
    4.2596    0.7893    2.2466 N   0  0  0  0  0  0  0  0  0  0  0  0
    5.6524    0.8423    2.3863 C   0  0  0  0  0  0  0  0  0  0  0  0
    6.4333    0.5279    1.4866 O   0  0  0  0  0  0  0  0  0  0  0  0
    6.0523    1.2837    3.6189 N   0  0  0  0  0  0  0  0  0  0  0  0
    7.4700    1.4109    3.9476 C   0  0  0  0  0  0  0  0  0  0  0  0
    7.7134    2.5247    4.9615 C   0  0  0  0  0  0  0  0  0  0  0  0
    6.9018    2.3155    6.2473 C   0  0  0  0  0  0  0  0  0  0  0  0
    5.6413    1.4672    6.0412 C   0  0  0  0  0  0  0  0  0  0  0  0
    5.0716    1.6401    4.6408 C   0  0  0  0  0  0  0  0  0  0  0  0
    7.7135    1.6997    7.2335 O   0  0  0  0  0  0  0  0  0  0  0  0
    7.9551    2.4127    8.3853 C   0  0  0  0  0  0  0  0  0  0  0  0
    7.1007    2.2982    9.4849 C   0  0  0  0  0  0  0  0  0  0  0  0
    7.3408    3.0210   10.6629 C   0  0  0  0  0  0  0  0  0  0  0  0
    8.4378    3.8869   10.7906 C   0  0  0  0  0  0  0  0  0  0  0  0
    9.2689    3.9885    9.6582 C   0  0  0  0  0  0  0  0  0  0  0  0
    9.0455    3.2776    8.4711 C   0  0  0  0  0  0  0  0  0  0  0  0
   10.1060    3.4554    7.1274 Cl  0  0  0  0  0  0  0  0  0  0  0  0
    2.1684    0.3918    1.1334 C   0  0  0  0  0  0  0  0  0  0  0  0
   -2.5227   -0.5106   -0.6590 H   0  0  0  0  0  0  0  0  0  0  0  0
   -2.2658   -0.3145   -2.4205 H   0  0  0  0  0  0  0  0  0  0  0  0
   -2.3505    1.1228   -1.3604 H   0  0  0  0  0  0  0  0  0  0  0  0
   -0.0208    0.1083   -2.0891 H   0  0  0  0  0  0  0  0  0  0  0  0
    1.6384   -0.7401   -2.0213 H   0  0  0  0  0  0  0  0  0  0  0  0
    4.0596   -0.7504   -2.0489 H   0  0  0  0  0  0  0  0  0  0  0  0
    5.4009   -0.0086   -0.0221 H   0  0  0  0  0  0  0  0  0  0  0  0
    3.6871    1.1981    2.9787 H   0  0  0  0  0  0  0  0  0  0  0  0
    8.0395    1.5915    3.0290 H   0  0  0  0  0  0  0  0  0  0  0  0
    7.7984    0.4452    4.3499 H   0  0  0  0  0  0  0  0  0  0  0  0
    7.4059    3.4743    4.5046 H   0  0  0  0  0  0  0  0  0  0  0  0
    8.7841    2.5989    5.1825 H   0  0  0  0  0  0  0  0  0  0  0  0
    6.6228    3.2975    6.6459 H   0  0  0  0  0  0  0  0  0  0  0  0
    4.8912    1.7390    6.7932 H   0  0  0  0  0  0  0  0  0  0  0  0
    5.8677    0.4068    6.2150 H   0  0  0  0  0  0  0  0  0  0  0  0
    4.7858    2.6843    4.4669 H   0  0  0  0  0  0  0  0  0  0  0  0
    4.1721    1.0292    4.5062 H   0  0  0  0  0  0  0  0  0  0  0  0
    6.2321    1.6454    9.4383 H   0  0  0  0  0  0  0  0  0  0  0  0
    6.6330    2.8883   11.4774 H   0  0  0  0  0  0  0  0  0  0  0  0
    8.6278    4.4472   11.6964 H   0  0  0  0  0  0  0  0  0  0  0  0
   10.1294    4.6544    9.7091 H   0  0  0  0  0  0  0  0  0  0  0  0
    1.6335    0.7041    2.0273 H   0  0  0  0  0  0  0  0  0  0  0  0
  1  2  1  0
  2  3  1  0
  3  4  2  0
  3  5  1  0
  5  6  2  0
  6  7  1  0
  7  8  2  0
  8  9  1  0
  9 10  1  0
 10 11  1  0
 11 12  2  0
 11 13  1  0
 13 14  1  0
 14 15  1  0
 15 16  1  0
 16 17  1  0
 17 18  1  0
 16 19  1  0
 19 20  1  0
 20 21  2  0
 21 22  1  0
 22 23  2  0
 23 24  1  0
 24 25  2  0
 25 26  1  0
  9 27  2  0
 27  5  1  0
 18 13  1  0
 25 20  1  0
  1 28  1  0
  1 29  1  0
  1 30  1  0
  2 31  1  0
  6 32  1  0
  7 33  1  0
  8 34  1  0
 10 35  1  0
 14 36  1  0
 14 37  1  0
 15 38  1  0
 15 39  1  0
 16 40  1  0
 17 41  1  0
 17 42  1  0
 18 43  1  0
 18 44  1  0
 21 45  1  0
 22 46  1  0
 23 47  1  0
 24 48  1  0
 27 49  1  0
M  END
>  <_MoleculeID>  (201) 
smi21

>  <_InputIndex>  (201) 
21

>  <_InputSMILES>  (201) 
CNC(=O)c1cccc(NC(=O)N2CCC(CC2)Oc2ccccc2Cl)c1

>  <_InputInChIKey>  (201) 
DPYTYQFYDLYWHZ-UHFFFAOYSA-N

>  <_SMILES>  (201) 
CNC(=O)c1cccc(NC(=O)N2CCC(Oc3ccccc3Cl)CC2)c1

>  <_InChIKey>  (201) 
DPYTYQFYDLYWHZ-UHFFFAOYSA-N

$$$$
smi21_conf6
     RDKit          3D

 49 51  0  0  0  0  0  0  0  0999 V2000
   -2.0252    0.0817   -1.4313 C   0  0  0  0  0  0  0  0  0  0  0  0
   -0.5916    0.0381   -1.2540 N   0  0  0  0  0  0  0  0  0  0  0  0
    0.0000    0.0000    0.0000 C   0  0  0  0  0  0  0  0  0  0  0  0
   -0.6354    0.0000    1.0524 O   0  0  0  0  0  0  0  0  0  0  0  0
    1.4570    0.0000    0.0000 C   0  0  0  0  0  0  0  0  0  0  0  0
    2.1681    0.4113    1.1301 C   0  0  0  0  0  0  0  0  0  0  0  0
    3.5708    0.4132    1.1383 C   0  0  0  0  0  0  0  0  0  0  0  0
    4.3190    0.0089    0.0219 C   0  0  0  0  0  0  0  0  0  0  0  0
    3.5696   -0.3852   -1.1035 C   0  0  0  0  0  0  0  0  0  0  0  0
    4.2596   -0.7893   -2.2466 N   0  0  0  0  0  0  0  0  0  0  0  0
    5.6524   -0.8423   -2.3863 C   0  0  0  0  0  0  0  0  0  0  0  0
    6.4333   -0.5279   -1.4866 O   0  0  0  0  0  0  0  0  0  0  0  0
    6.0523   -1.2837   -3.6189 N   0  0  0  0  0  0  0  0  0  0  0  0
    7.4700   -1.4109   -3.9476 C   0  0  0  0  0  0  0  0  0  0  0  0
    7.7230   -1.1910   -5.4360 C   0  0  0  0  0  0  0  0  0  0  0  0
    6.9030   -2.1548   -6.3045 C   0  0  0  0  0  0  0  0  0  0  0  0
    5.6327   -2.6661   -5.6147 C   0  0  0  0  0  0  0  0  0  0  0  0
    5.0716   -1.6402   -4.6407 C   0  0  0  0  0  0  0  0  0  0  0  0
    7.7022   -3.2654   -6.6765 O   0  0  0  0  0  0  0  0  0  0  0  0
    7.9476   -3.4433   -8.0187 C   0  0  0  0  0  0  0  0  0  0  0  0
    9.0620   -2.8547   -8.6219 C   0  0  0  0  0  0  0  0  0  0  0  0
    9.3196   -3.0322   -9.9893 C   0  0  0  0  0  0  0  0  0  0  0  0
    8.4770   -3.7991  -10.8088 C   0  0  0  0  0  0  0  0  0  0  0  0
    7.3564   -4.3648  -10.1705 C   0  0  0  0  0  0  0  0  0  0  0  0
    7.0794   -4.1977   -8.8068 C   0  0  0  0  0  0  0  0  0  0  0  0
    5.6875   -4.9201   -8.0978 Cl  0  0  0  0  0  0  0  0  0  0  0  0
    2.1684   -0.3918   -1.1334 C   0  0  0  0  0  0  0  0  0  0  0  0
   -2.5227   -0.5106   -0.6590 H   0  0  0  0  0  0  0  0  0  0  0  0
   -2.2658   -0.3145   -2.4205 H   0  0  0  0  0  0  0  0  0  0  0  0
   -2.3505    1.1228   -1.3604 H   0  0  0  0  0  0  0  0  0  0  0  0
   -0.0208    0.1083   -2.0891 H   0  0  0  0  0  0  0  0  0  0  0  0
    1.6384    0.7401    2.0213 H   0  0  0  0  0  0  0  0  0  0  0  0
    4.0596    0.7504    2.0489 H   0  0  0  0  0  0  0  0  0  0  0  0
    5.4009    0.0086    0.0221 H   0  0  0  0  0  0  0  0  0  0  0  0
    3.6871   -1.1981   -2.9787 H   0  0  0  0  0  0  0  0  0  0  0  0
    8.0460   -0.6980   -3.3469 H   0  0  0  0  0  0  0  0  0  0  0  0
    7.7841   -2.4178   -3.6481 H   0  0  0  0  0  0  0  0  0  0  0  0
    7.4298   -0.1624   -5.6829 H   0  0  0  0  0  0  0  0  0  0  0  0
    8.7936   -1.2867   -5.6493 H   0  0  0  0  0  0  0  0  0  0  0  0
    6.6347   -1.6418   -7.2350 H   0  0  0  0  0  0  0  0  0  0  0  0
    4.8827   -2.9207   -6.3727 H   0  0  0  0  0  0  0  0  0  0  0  0
    5.8447   -3.6008   -5.0787 H   0  0  0  0  0  0  0  0  0  0  0  0
    4.8000   -0.7173   -5.1667 H   0  0  0  0  0  0  0  0  0  0  0  0
    4.1649   -2.0173   -4.1546 H   0  0  0  0  0  0  0  0  0  0  0  0
    9.7453   -2.2456   -8.0346 H   0  0  0  0  0  0  0  0  0  0  0  0
   10.2013   -2.5416  -10.3942 H   0  0  0  0  0  0  0  0  0  0  0  0
    8.6703   -3.9391  -11.8641 H   0  0  0  0  0  0  0  0  0  0  0  0
    6.6704   -4.9629  -10.7690 H   0  0  0  0  0  0  0  0  0  0  0  0
    1.6335   -0.7041   -2.0273 H   0  0  0  0  0  0  0  0  0  0  0  0
  1  2  1  0
  2  3  1  0
  3  4  2  0
  3  5  1  0
  5  6  2  0
  6  7  1  0
  7  8  2  0
  8  9  1  0
  9 10  1  0
 10 11  1  0
 11 12  2  0
 11 13  1  0
 13 14  1  0
 14 15  1  0
 15 16  1  0
 16 17  1  0
 17 18  1  0
 16 19  1  0
 19 20  1  0
 20 21  2  0
 21 22  1  0
 22 23  2  0
 23 24  1  0
 24 25  2  0
 25 26  1  0
  9 27  2  0
 27  5  1  0
 18 13  1  0
 25 20  1  0
  1 28  1  0
  1 29  1  0
  1 30  1  0
  2 31  1  0
  6 32  1  0
  7 33  1  0
  8 34  1  0
 10 35  1  0
 14 36  1  0
 14 37  1  0
 15 38  1  0
 15 39  1  0
 16 40  1  0
 17 41  1  0
 17 42  1  0
 18 43  1  0
 18 44  1  0
 21 45  1  0
 22 46  1  0
 23 47  1  0
 24 48  1  0
 27 49  1  0
M  END
>  <_MoleculeID>  (202) 
smi21

>  <_InputIndex>  (202) 
21

>  <_InputSMILES>  (202) 
CNC(=O)c1cccc(NC(=O)N2CCC(CC2)Oc2ccccc2Cl)c1

>  <_InputInChIKey>  (202) 
DPYTYQFYDLYWHZ-UHFFFAOYSA-N

>  <_SMILES>  (202) 
CNC(=O)c1cccc(NC(=O)N2CCC(Oc3ccccc3Cl)CC2)c1

>  <_InChIKey>  (202) 
DPYTYQFYDLYWHZ-UHFFFAOYSA-N

$$$$
smi21_conf7
     RDKit          3D

 49 51  0  0  0  0  0  0  0  0999 V2000
   -2.0252    0.0817   -1.4313 C   0  0  0  0  0  0  0  0  0  0  0  0
   -0.5916    0.0381   -1.2540 N   0  0  0  0  0  0  0  0  0  0  0  0
    0.0000    0.0000    0.0000 C   0  0  0  0  0  0  0  0  0  0  0  0
   -0.6354    0.0000    1.0524 O   0  0  0  0  0  0  0  0  0  0  0  0
    1.4570   -0.0000    0.0000 C   0  0  0  0  0  0  0  0  0  0  0  0
    2.1681   -0.4113   -1.1301 C   0  0  0  0  0  0  0  0  0  0  0  0
    3.5708   -0.4132   -1.1383 C   0  0  0  0  0  0  0  0  0  0  0  0
    4.3190   -0.0089   -0.0219 C   0  0  0  0  0  0  0  0  0  0  0  0
    3.5696    0.3852    1.1035 C   0  0  0  0  0  0  0  0  0  0  0  0
    4.2596    0.7893    2.2466 N   0  0  0  0  0  0  0  0  0  0  0  0
    3.6765    1.2107    3.4486 C   0  0  0  0  0  0  0  0  0  0  0  0
    2.4584    1.2690    3.6237 O   0  0  0  0  0  0  0  0  0  0  0  0
    4.5979    1.5432    4.4050 N   0  0  0  0  0  0  0  0  0  0  0  0
    6.0301    1.4516    4.1322 C   0  0  0  0  0  0  0  0  0  0  0  0
    6.8213    2.4797    4.9352 C   0  0  0  0  0  0  0  0  0  0  0  0
    6.5729    2.3422    6.4435 C   0  0  0  0  0  0  0  0  0  0  0  0
    5.2256    1.6934    6.7827 C   0  0  0  0  0  0  0  0  0  0  0  0
    4.1740    1.9993    5.7261 C   0  0  0  0  0  0  0  0  0  0  0  0
    7.6117    1.5790    7.0344 O   0  0  0  0  0  0  0  0  0  0  0  0
    8.8146    2.2120    7.2485 C   0  0  0  0  0  0  0  0  0  0  0  0
    9.8087    2.2006    6.2669 C   0  0  0  0  0  0  0  0  0  0  0  0
   11.0371    2.8444    6.4772 C   0  0  0  0  0  0  0  0  0  0  0  0
   11.3241    3.5212    7.6727 C   0  0  0  0  0  0  0  0  0  0  0  0
   10.3051    3.4998    8.6445 C   0  0  0  0  0  0  0  0  0  0  0  0
    9.0723    2.8604    8.4557 C   0  0  0  0  0  0  0  0  0  0  0  0
    7.8754    2.8764    9.6923 Cl  0  0  0  0  0  0  0  0  0  0  0  0
    2.1684    0.3918    1.1334 C   0  0  0  0  0  0  0  0  0  0  0  0
   -2.5227   -0.5106   -0.6590 H   0  0  0  0  0  0  0  0  0  0  0  0
   -2.2658   -0.3145   -2.4205 H   0  0  0  0  0  0  0  0  0  0  0  0
   -2.3505    1.1228   -1.3604 H   0  0  0  0  0  0  0  0  0  0  0  0
   -0.0208    0.1083   -2.0891 H   0  0  0  0  0  0  0  0  0  0  0  0
    1.6384   -0.7401   -2.0213 H   0  0  0  0  0  0  0  0  0  0  0  0
    4.0596   -0.7504   -2.0489 H   0  0  0  0  0  0  0  0  0  0  0  0
    5.4009   -0.0086   -0.0221 H   0  0  0  0  0  0  0  0  0  0  0  0
    5.2625    0.6327    2.2278 H   0  0  0  0  0  0  0  0  0  0  0  0
    6.2029    1.5821    3.0581 H   0  0  0  0  0  0  0  0  0  0  0  0
    6.3460    0.4342    4.3917 H   0  0  0  0  0  0  0  0  0  0  0  0
    6.5000    3.4802    4.6178 H   0  0  0  0  0  0  0  0  0  0  0  0
    7.8888    2.3899    4.7048 H   0  0  0  0  0  0  0  0  0  0  0  0
    6.6254    3.3386    6.8968 H   0  0  0  0  0  0  0  0  0  0  0  0
    4.8894    2.0426    7.7661 H   0  0  0  0  0  0  0  0  0  0  0  0
    5.3437    0.6057    6.8764 H   0  0  0  0  0  0  0  0  0  0  0  0
    3.9998    3.0796    5.6567 H   0  0  0  0  0  0  0  0  0  0  0  0
    3.2168    1.5303    5.9797 H   0  0  0  0  0  0  0  0  0  0  0  0
    9.6414    1.6860    5.3235 H   0  0  0  0  0  0  0  0  0  0  0  0
   11.7672    2.7913    5.6734 H   0  0  0  0  0  0  0  0  0  0  0  0
   12.2698    4.0191    7.8407 H   0  0  0  0  0  0  0  0  0  0  0  0
   10.4861    4.0068    9.5915 H   0  0  0  0  0  0  0  0  0  0  0  0
    1.6335    0.7041    2.0273 H   0  0  0  0  0  0  0  0  0  0  0  0
  1  2  1  0
  2  3  1  0
  3  4  2  0
  3  5  1  0
  5  6  2  0
  6  7  1  0
  7  8  2  0
  8  9  1  0
  9 10  1  0
 10 11  1  0
 11 12  2  0
 11 13  1  0
 13 14  1  0
 14 15  1  0
 15 16  1  0
 16 17  1  0
 17 18  1  0
 16 19  1  0
 19 20  1  0
 20 21  2  0
 21 22  1  0
 22 23  2  0
 23 24  1  0
 24 25  2  0
 25 26  1  0
  9 27  2  0
 27  5  1  0
 18 13  1  0
 25 20  1  0
  1 28  1  0
  1 29  1  0
  1 30  1  0
  2 31  1  0
  6 32  1  0
  7 33  1  0
  8 34  1  0
 10 35  1  0
 14 36  1  0
 14 37  1  0
 15 38  1  0
 15 39  1  0
 16 40  1  0
 17 41  1  0
 17 42  1  0
 18 43  1  0
 18 44  1  0
 21 45  1  0
 22 46  1  0
 23 47  1  0
 24 48  1  0
 27 49  1  0
M  END
>  <_MoleculeID>  (203) 
smi21

>  <_InputIndex>  (203) 
21

>  <_InputSMILES>  (203) 
CNC(=O)c1cccc(NC(=O)N2CCC(CC2)Oc2ccccc2Cl)c1

>  <_InputInChIKey>  (203) 
DPYTYQFYDLYWHZ-UHFFFAOYSA-N

>  <_SMILES>  (203) 
CNC(=O)c1cccc(NC(=O)N2CCC(Oc3ccccc3Cl)CC2)c1

>  <_InChIKey>  (203) 
DPYTYQFYDLYWHZ-UHFFFAOYSA-N

$$$$
smi21_conf8
     RDKit          3D

 49 51  0  0  0  0  0  0  0  0999 V2000
   -2.0252    0.0817   -1.4313 C   0  0  0  0  0  0  0  0  0  0  0  0
   -0.5916    0.0381   -1.2540 N   0  0  0  0  0  0  0  0  0  0  0  0
    0.0000    0.0000    0.0000 C   0  0  0  0  0  0  0  0  0  0  0  0
   -0.6354    0.0000    1.0524 O   0  0  0  0  0  0  0  0  0  0  0  0
    1.4570    0.0000    0.0000 C   0  0  0  0  0  0  0  0  0  0  0  0
    2.1681    0.4113    1.1301 C   0  0  0  0  0  0  0  0  0  0  0  0
    3.5708    0.4132    1.1383 C   0  0  0  0  0  0  0  0  0  0  0  0
    4.3190    0.0089    0.0219 C   0  0  0  0  0  0  0  0  0  0  0  0
    3.5696   -0.3852   -1.1035 C   0  0  0  0  0  0  0  0  0  0  0  0
    4.2596   -0.7893   -2.2466 N   0  0  0  0  0  0  0  0  0  0  0  0
    5.6524   -0.8423   -2.3863 C   0  0  0  0  0  0  0  0  0  0  0  0
    6.4333   -0.5279   -1.4866 O   0  0  0  0  0  0  0  0  0  0  0  0
    6.0523   -1.2837   -3.6189 N   0  0  0  0  0  0  0  0  0  0  0  0
    5.0733   -1.6409   -4.6428 C   0  0  0  0  0  0  0  0  0  0  0  0
    5.6051   -2.7271   -5.5731 C   0  0  0  0  0  0  0  0  0  0  0  0
    6.9236   -2.3134   -6.2410 C   0  0  0  0  0  0  0  0  0  0  0  0
    7.7106   -1.2686   -5.4410 C   0  0  0  0  0  0  0  0  0  0  0  0
    7.4703   -1.4099   -3.9450 C   0  0  0  0  0  0  0  0  0  0  0  0
    6.6657   -1.8003   -7.5375 O   0  0  0  0  0  0  0  0  0  0  0  0
    7.2017   -2.4851   -8.6039 C   0  0  0  0  0  0  0  0  0  0  0  0
    6.4839   -3.5114   -9.2232 C   0  0  0  0  0  0  0  0  0  0  0  0
    7.0230   -4.2133  -10.3114 C   0  0  0  0  0  0  0  0  0  0  0  0
    8.2974   -3.9231  -10.8227 C   0  0  0  0  0  0  0  0  0  0  0  0
    8.9975   -2.8932  -10.1651 C   0  0  0  0  0  0  0  0  0  0  0  0
    8.4785   -2.1815   -9.0749 C   0  0  0  0  0  0  0  0  0  0  0  0
    9.3959   -0.9354   -8.3217 Cl  0  0  0  0  0  0  0  0  0  0  0  0
    2.1684   -0.3918   -1.1334 C   0  0  0  0  0  0  0  0  0  0  0  0
   -2.5227   -0.5106   -0.6590 H   0  0  0  0  0  0  0  0  0  0  0  0
   -2.2658   -0.3145   -2.4205 H   0  0  0  0  0  0  0  0  0  0  0  0
   -2.3505    1.1228   -1.3604 H   0  0  0  0  0  0  0  0  0  0  0  0
   -0.0208    0.1083   -2.0891 H   0  0  0  0  0  0  0  0  0  0  0  0
    1.6384    0.7401    2.0213 H   0  0  0  0  0  0  0  0  0  0  0  0
    4.0596    0.7504    2.0489 H   0  0  0  0  0  0  0  0  0  0  0  0
    5.4009    0.0086    0.0221 H   0  0  0  0  0  0  0  0  0  0  0  0
    3.6871   -1.1981   -2.9787 H   0  0  0  0  0  0  0  0  0  0  0  0
    4.1454   -1.9652   -4.1586 H   0  0  0  0  0  0  0  0  0  0  0  0
    4.8450   -0.7287   -5.2065 H   0  0  0  0  0  0  0  0  0  0  0  0
    5.7843   -3.6299   -4.9750 H   0  0  0  0  0  0  0  0  0  0  0  0
    4.8475   -2.9767   -6.3243 H   0  0  0  0  0  0  0  0  0  0  0  0
    7.5389   -3.2095   -6.3802 H   0  0  0  0  0  0  0  0  0  0  0  0
    8.7793   -1.3658   -5.6654 H   0  0  0  0  0  0  0  0  0  0  0  0
    7.4289   -0.2570   -5.7622 H   0  0  0  0  0  0  0  0  0  0  0  0
    7.7984   -2.3952   -3.5930 H   0  0  0  0  0  0  0  0  0  0  0  0
    8.0376   -0.6582   -3.3849 H   0  0  0  0  0  0  0  0  0  0  0  0
    5.4936   -3.7816   -8.8639 H   0  0  0  0  0  0  0  0  0  0  0  0
    6.4124   -5.0031  -10.7419 H   0  0  0  0  0  0  0  0  0  0  0  0
    8.7186   -4.4613  -11.6614 H   0  0  0  0  0  0  0  0  0  0  0  0
    9.9940   -2.6378  -10.5234 H   0  0  0  0  0  0  0  0  0  0  0  0
    1.6335   -0.7041   -2.0273 H   0  0  0  0  0  0  0  0  0  0  0  0
  1  2  1  0
  2  3  1  0
  3  4  2  0
  3  5  1  0
  5  6  2  0
  6  7  1  0
  7  8  2  0
  8  9  1  0
  9 10  1  0
 10 11  1  0
 11 12  2  0
 11 13  1  0
 13 14  1  0
 14 15  1  0
 15 16  1  0
 16 17  1  0
 17 18  1  0
 16 19  1  0
 19 20  1  0
 20 21  2  0
 21 22  1  0
 22 23  2  0
 23 24  1  0
 24 25  2  0
 25 26  1  0
  9 27  2  0
 27  5  1  0
 18 13  1  0
 25 20  1  0
  1 28  1  0
  1 29  1  0
  1 30  1  0
  2 31  1  0
  6 32  1  0
  7 33  1  0
  8 34  1  0
 10 35  1  0
 14 36  1  0
 14 37  1  0
 15 38  1  0
 15 39  1  0
 16 40  1  0
 17 41  1  0
 17 42  1  0
 18 43  1  0
 18 44  1  0
 21 45  1  0
 22 46  1  0
 23 47  1  0
 24 48  1  0
 27 49  1  0
M  END
>  <_MoleculeID>  (204) 
smi21

>  <_InputIndex>  (204) 
21

>  <_InputSMILES>  (204) 
CNC(=O)c1cccc(NC(=O)N2CCC(CC2)Oc2ccccc2Cl)c1

>  <_InputInChIKey>  (204) 
DPYTYQFYDLYWHZ-UHFFFAOYSA-N

>  <_SMILES>  (204) 
CNC(=O)c1cccc(NC(=O)N2CCC(Oc3ccccc3Cl)CC2)c1

>  <_InChIKey>  (204) 
DPYTYQFYDLYWHZ-UHFFFAOYSA-N

$$$$
smi21_conf9
     RDKit          3D

 49 51  0  0  0  0  0  0  0  0999 V2000
   -2.0252    0.0817   -1.4313 C   0  0  0  0  0  0  0  0  0  0  0  0
   -0.5916    0.0381   -1.2540 N   0  0  0  0  0  0  0  0  0  0  0  0
    0.0000    0.0000    0.0000 C   0  0  0  0  0  0  0  0  0  0  0  0
   -0.6354    0.0000    1.0524 O   0  0  0  0  0  0  0  0  0  0  0  0
    1.4570    0.0000    0.0000 C   0  0  0  0  0  0  0  0  0  0  0  0
    2.1681   -0.4113    1.1301 C   0  0  0  0  0  0  0  0  0  0  0  0
    3.5708   -0.4151    1.1376 C   0  0  0  0  0  0  0  0  0  0  0  0
    4.3190   -0.0073    0.0225 C   0  0  0  0  0  0  0  0  0  0  0  0
    3.5696    0.4143   -1.0929 C   0  0  0  0  0  0  0  0  0  0  0  0
    4.2596    0.8394   -2.2283 N   0  0  0  0  0  0  0  0  0  0  0  0
    5.6524    0.8886   -2.3694 C   0  0  0  0  0  0  0  0  0  0  0  0
    6.4333    0.5512   -1.4781 O   0  0  0  0  0  0  0  0  0  0  0  0
    6.0523    1.3428   -3.5974 N   0  0  0  0  0  0  0  0  0  0  0  0
    5.0733    1.7273   -4.6113 C   0  0  0  0  0  0  0  0  0  0  0  0
    5.6147    2.8200   -5.5283 C   0  0  0  0  0  0  0  0  0  0  0  0
    6.9247    2.3993   -6.2084 C   0  0  0  0  0  0  0  0  0  0  0  0
    7.7019    1.3330   -5.4274 C   0  0  0  0  0  0  0  0  0  0  0  0
    7.4703    1.4556   -3.9284 C   0  0  0  0  0  0  0  0  0  0  0  0
    6.6544    1.9084   -7.5110 O   0  0  0  0  0  0  0  0  0  0  0  0
    7.6848    1.9400   -8.4223 C   0  0  0  0  0  0  0  0  0  0  0  0
    8.9388    2.4387   -8.0607 C   0  0  0  0  0  0  0  0  0  0  0  0
    9.9945    2.4732   -8.9838 C   0  0  0  0  0  0  0  0  0  0  0  0
    9.8420    2.0158  -10.3018 C   0  0  0  0  0  0  0  0  0  0  0  0
    8.5614    1.5337  -10.6349 C   0  0  0  0  0  0  0  0  0  0  0  0
    7.4927    1.4931   -9.7291 C   0  0  0  0  0  0  0  0  0  0  0  0
    5.9544    0.8904  -10.2112 Cl  0  0  0  0  0  0  0  0  0  0  0  0
    2.1684    0.4284   -1.1201 C   0  0  0  0  0  0  0  0  0  0  0  0
   -2.5227   -0.5106   -0.6590 H   0  0  0  0  0  0  0  0  0  0  0  0
   -2.2658   -0.3145   -2.4205 H   0  0  0  0  0  0  0  0  0  0  0  0
   -2.3505    1.1228   -1.3604 H   0  0  0  0  0  0  0  0  0  0  0  0
   -0.0208    0.1083   -2.0891 H   0  0  0  0  0  0  0  0  0  0  0  0
    1.6384   -0.7323    2.0241 H   0  0  0  0  0  0  0  0  0  0  0  0
    4.0596   -0.7422    2.0519 H   0  0  0  0  0  0  0  0  0  0  0  0
    5.4009   -0.0076    0.0225 H   0  0  0  0  0  0  0  0  0  0  0  0
    3.6871    0.9969   -3.0519 H   0  0  0  0  0  0  0  0  0  0  0  0
    4.1519    2.0564   -4.1181 H   0  0  0  0  0  0  0  0  0  0  0  0
    4.8307    0.8263   -5.1871 H   0  0  0  0  0  0  0  0  0  0  0  0
    5.8083    3.7117   -4.9181 H   0  0  0  0  0  0  0  0  0  0  0  0
    4.8569    3.0902   -6.2723 H   0  0  0  0  0  0  0  0  0  0  0  0
    7.5508    3.2894   -6.3375 H   0  0  0  0  0  0  0  0  0  0  0  0
    8.7708    1.4199   -5.6554 H   0  0  0  0  0  0  0  0  0  0  0  0
    7.4058    0.3299   -5.7618 H   0  0  0  0  0  0  0  0  0  0  0  0
    7.8126    2.4314   -3.5637 H   0  0  0  0  0  0  0  0  0  0  0  0
    8.0304    0.6887   -3.3819 H   0  0  0  0  0  0  0  0  0  0  0  0
    9.1108    2.8114   -7.0536 H   0  0  0  0  0  0  0  0  0  0  0  0
   10.9417    2.8788   -8.6369 H   0  0  0  0  0  0  0  0  0  0  0  0
   10.6524    2.0403  -11.0181 H   0  0  0  0  0  0  0  0  0  0  0  0
    8.3944    1.1743  -11.6496 H   0  0  0  0  0  0  0  0  0  0  0  0
    1.6335    0.7637   -2.0056 H   0  0  0  0  0  0  0  0  0  0  0  0
  1  2  1  0
  2  3  1  0
  3  4  2  0
  3  5  1  0
  5  6  2  0
  6  7  1  0
  7  8  2  0
  8  9  1  0
  9 10  1  0
 10 11  1  0
 11 12  2  0
 11 13  1  0
 13 14  1  0
 14 15  1  0
 15 16  1  0
 16 17  1  0
 17 18  1  0
 16 19  1  0
 19 20  1  0
 20 21  2  0
 21 22  1  0
 22 23  2  0
 23 24  1  0
 24 25  2  0
 25 26  1  0
  9 27  2  0
 27  5  1  0
 18 13  1  0
 25 20  1  0
  1 28  1  0
  1 29  1  0
  1 30  1  0
  2 31  1  0
  6 32  1  0
  7 33  1  0
  8 34  1  0
 10 35  1  0
 14 36  1  0
 14 37  1  0
 15 38  1  0
 15 39  1  0
 16 40  1  0
 17 41  1  0
 17 42  1  0
 18 43  1  0
 18 44  1  0
 21 45  1  0
 22 46  1  0
 23 47  1  0
 24 48  1  0
 27 49  1  0
M  END
>  <_MoleculeID>  (205) 
smi21

>  <_InputIndex>  (205) 
21

>  <_InputSMILES>  (205) 
CNC(=O)c1cccc(NC(=O)N2CCC(CC2)Oc2ccccc2Cl)c1

>  <_InputInChIKey>  (205) 
DPYTYQFYDLYWHZ-UHFFFAOYSA-N

>  <_SMILES>  (205) 
CNC(=O)c1cccc(NC(=O)N2CCC(Oc3ccccc3Cl)CC2)c1

>  <_InChIKey>  (205) 
DPYTYQFYDLYWHZ-UHFFFAOYSA-N

$$$$
smi22_conf0
     RDKit          3D

 29 29  0  0  0  0  0  0  0  0999 V2000
    4.1132   -0.2365   -2.8714 C   0  0  0  0  0  0  0  0  0  0  0  0
    4.3267    0.2036   -1.4332 C   0  0  0  0  0  0  0  0  0  0  0  0
    3.6878   -0.7631   -0.4434 C   0  0  0  0  0  0  0  0  0  0  0  0
    4.3470   -1.4079    0.4767 N   0  0  0  0  0  0  0  0  0  0  0  0
    5.7062   -1.0934    0.4533 O   0  0  0  0  0  0  0  0  0  0  0  0
    2.2057   -0.9601   -0.5543 C   0  0  0  0  0  0  0  0  0  0  0  0
    1.7259   -2.1922   -1.2553 C   0  0  0  0  0  0  0  0  0  0  0  0
    1.4490    0.0000   -0.0000 C   0  0  0  0  0  0  0  0  0  0  0  0
    0.0000    0.0000    0.0000 C   0  0  0  0  0  0  0  0  0  0  0  0
   -0.7111    0.0000    1.2027 C   0  0  0  0  0  0  0  0  0  0  0  0
   -2.1138    0.0010    1.2110 C   0  0  0  0  0  0  0  0  0  0  0  0
   -2.8620   -0.0009    0.0236 C   0  0  0  0  0  0  0  0  0  0  0  0
   -4.2040   -0.0004    0.0238 F   0  0  0  0  0  0  0  0  0  0  0  0
   -2.1126   -0.0155   -1.1687 C   0  0  0  0  0  0  0  0  0  0  0  0
   -0.7114   -0.0194   -1.1991 C   0  0  0  0  0  0  0  0  0  0  0  0
    4.5758    0.4788   -3.5585 H   0  0  0  0  0  0  0  0  0  0  0  0
    4.5520   -1.2208   -3.0608 H   0  0  0  0  0  0  0  0  0  0  0  0
    3.0479   -0.2994   -3.1136 H   0  0  0  0  0  0  0  0  0  0  0  0
    3.9025    1.2040   -1.2908 H   0  0  0  0  0  0  0  0  0  0  0  0
    5.3970    0.2892   -1.2156 H   0  0  0  0  0  0  0  0  0  0  0  0
    6.0466   -1.6423    1.1797 H   0  0  0  0  0  0  0  0  0  0  0  0
    0.6471   -2.3423   -1.1514 H   0  0  0  0  0  0  0  0  0  0  0  0
    2.2158   -3.0788   -0.8391 H   0  0  0  0  0  0  0  0  0  0  0  0
    1.9508   -2.1421   -2.3251 H   0  0  0  0  0  0  0  0  0  0  0  0
    1.9017    0.8609    0.4846 H   0  0  0  0  0  0  0  0  0  0  0  0
   -0.1814   -0.0042    2.1525 H   0  0  0  0  0  0  0  0  0  0  0  0
   -2.6026   -0.0043    2.1820 H   0  0  0  0  0  0  0  0  0  0  0  0
   -2.6514   -0.0242   -2.1154 H   0  0  0  0  0  0  0  0  0  0  0  0
   -0.1765   -0.0317   -2.1459 H   0  0  0  0  0  0  0  0  0  0  0  0
  1  2  1  0
  2  3  1  0
  3  4  2  0
  4  5  1  0
  3  6  1  0
  6  7  1  0
  6  8  2  0
  8  9  1  0
  9 10  2  0
 10 11  1  0
 11 12  2  0
 12 13  1  0
 12 14  1  0
 14 15  2  0
 15  9  1  0
  1 16  1  0
  1 17  1  0
  1 18  1  0
  2 19  1  0
  2 20  1  0
  5 21  1  0
  7 22  1  0
  7 23  1  0
  7 24  1  0
  8 25  1  0
 10 26  1  0
 11 27  1  0
 14 28  1  0
 15 29  1  0
M  END
>  <_MoleculeID>  (206) 
smi22

>  <_InputIndex>  (206) 
22

>  <_InputSMILES>  (206) 
CC\C(=N/O)\C(\C)=C\c1ccc(F)cc1

>  <_InputInChIKey>  (206) 
HKROEBDHHKMNBZ-CHBKHGQFSA-N

>  <_SMILES>  (206) 
CCC(=N\O)/C(C)=C/c1ccc(F)cc1

>  <_InChIKey>  (206) 
HKROEBDHHKMNBZ-CHBKHGQFSA-N

$$$$
smi22_conf1
     RDKit          3D

 29 29  0  0  0  0  0  0  0  0999 V2000
    4.1239   -0.2591    2.8695 C   0  0  0  0  0  0  0  0  0  0  0  0
    4.3328    0.1918    1.4340 C   0  0  0  0  0  0  0  0  0  0  0  0
    3.6878   -0.7656    0.4392 C   0  0  0  0  0  0  0  0  0  0  0  0
    4.3437   -1.4133   -0.4814 N   0  0  0  0  0  0  0  0  0  0  0  0
    5.7098   -1.1336   -0.4345 O   0  0  0  0  0  0  0  0  0  0  0  0
    2.2057   -0.9601    0.5543 C   0  0  0  0  0  0  0  0  0  0  0  0
    1.7259   -2.1832    1.2709 C   0  0  0  0  0  0  0  0  0  0  0  0
    1.4490   -0.0000    0.0000 C   0  0  0  0  0  0  0  0  0  0  0  0
    0.0000    0.0000    0.0000 C   0  0  0  0  0  0  0  0  0  0  0  0
   -0.7111    0.0000    1.2027 C   0  0  0  0  0  0  0  0  0  0  0  0
   -2.1138    0.0010    1.2110 C   0  0  0  0  0  0  0  0  0  0  0  0
   -2.8620   -0.0009    0.0236 C   0  0  0  0  0  0  0  0  0  0  0  0
   -4.2040   -0.0004    0.0238 F   0  0  0  0  0  0  0  0  0  0  0  0
   -2.1126   -0.0155   -1.1687 C   0  0  0  0  0  0  0  0  0  0  0  0
   -0.7114   -0.0194   -1.1991 C   0  0  0  0  0  0  0  0  0  0  0  0
    4.6028    0.4423    3.5598 H   0  0  0  0  0  0  0  0  0  0  0  0
    3.0611   -0.3128    3.1241 H   0  0  0  0  0  0  0  0  0  0  0  0
    4.5536   -1.2507    3.0410 H   0  0  0  0  0  0  0  0  0  0  0  0
    5.4065    0.2637    1.2265 H   0  0  0  0  0  0  0  0  0  0  0  0
    3.9229    1.1970    1.2865 H   0  0  0  0  0  0  0  0  0  0  0  0
    6.0465   -1.6792   -1.1651 H   0  0  0  0  0  0  0  0  0  0  0  0
    0.6471   -2.1683    1.4528 H   0  0  0  0  0  0  0  0  0  0  0  0
    2.2158   -2.2661    2.2468 H   0  0  0  0  0  0  0  0  0  0  0  0
    1.9508   -3.0847    0.6925 H   0  0  0  0  0  0  0  0  0  0  0  0
    1.9017    0.8502   -0.5033 H   0  0  0  0  0  0  0  0  0  0  0  0
   -0.1814   -0.0042    2.1525 H   0  0  0  0  0  0  0  0  0  0  0  0
   -2.6026   -0.0043    2.1820 H   0  0  0  0  0  0  0  0  0  0  0  0
   -2.6514   -0.0242   -2.1154 H   0  0  0  0  0  0  0  0  0  0  0  0
   -0.1765   -0.0317   -2.1459 H   0  0  0  0  0  0  0  0  0  0  0  0
  1  2  1  0
  2  3  1  0
  3  4  2  0
  4  5  1  0
  3  6  1  0
  6  7  1  0
  6  8  2  0
  8  9  1  0
  9 10  2  0
 10 11  1  0
 11 12  2  0
 12 13  1  0
 12 14  1  0
 14 15  2  0
 15  9  1  0
  1 16  1  0
  1 17  1  0
  1 18  1  0
  2 19  1  0
  2 20  1  0
  5 21  1  0
  7 22  1  0
  7 23  1  0
  7 24  1  0
  8 25  1  0
 10 26  1  0
 11 27  1  0
 14 28  1  0
 15 29  1  0
M  END
>  <_MoleculeID>  (207) 
smi22

>  <_InputIndex>  (207) 
22

>  <_InputSMILES>  (207) 
CC\C(=N/O)\C(\C)=C\c1ccc(F)cc1

>  <_InputInChIKey>  (207) 
HKROEBDHHKMNBZ-CHBKHGQFSA-N

>  <_SMILES>  (207) 
CCC(=N\O)/C(C)=C/c1ccc(F)cc1

>  <_InChIKey>  (207) 
HKROEBDHHKMNBZ-CHBKHGQFSA-N

$$$$
smi22_conf2
     RDKit          3D

 29 29  0  0  0  0  0  0  0  0999 V2000
    3.3121   -1.6738    1.8766 C   0  0  0  0  0  0  0  0  0  0  0  0
    4.3328   -1.1460    0.8831 C   0  0  0  0  0  0  0  0  0  0  0  0
    3.6878   -0.7631   -0.4434 C   0  0  0  0  0  0  0  0  0  0  0  0
    4.3437   -0.2898   -1.4646 N   0  0  0  0  0  0  0  0  0  0  0  0
    5.7098   -0.1905   -1.1990 O   0  0  0  0  0  0  0  0  0  0  0  0
    2.2057   -0.9601   -0.5543 C   0  0  0  0  0  0  0  0  0  0  0  0
    1.7259   -2.1922   -1.2553 C   0  0  0  0  0  0  0  0  0  0  0  0
    1.4490    0.0000   -0.0000 C   0  0  0  0  0  0  0  0  0  0  0  0
    0.0000    0.0000    0.0000 C   0  0  0  0  0  0  0  0  0  0  0  0
   -0.7111    0.0000    1.2027 C   0  0  0  0  0  0  0  0  0  0  0  0
   -2.1138    0.0010    1.2110 C   0  0  0  0  0  0  0  0  0  0  0  0
   -2.8620   -0.0009    0.0236 C   0  0  0  0  0  0  0  0  0  0  0  0
   -4.2040   -0.0004    0.0238 F   0  0  0  0  0  0  0  0  0  0  0  0
   -2.1126   -0.0155   -1.1687 C   0  0  0  0  0  0  0  0  0  0  0  0
   -0.7114   -0.0194   -1.1991 C   0  0  0  0  0  0  0  0  0  0  0  0
    3.8040   -1.9467    2.8154 H   0  0  0  0  0  0  0  0  0  0  0  0
    2.5445   -0.9268    2.1008 H   0  0  0  0  0  0  0  0  0  0  0  0
    2.8033   -2.5619    1.4895 H   0  0  0  0  0  0  0  0  0  0  0  0
    5.1003   -1.9085    0.7083 H   0  0  0  0  0  0  0  0  0  0  0  0
    4.8529   -0.2752    1.2970 H   0  0  0  0  0  0  0  0  0  0  0  0
    6.0465    0.1694   -2.0368 H   0  0  0  0  0  0  0  0  0  0  0  0
    0.6471   -2.3423   -1.1514 H   0  0  0  0  0  0  0  0  0  0  0  0
    2.2158   -3.0788   -0.8391 H   0  0  0  0  0  0  0  0  0  0  0  0
    1.9508   -2.1421   -2.3251 H   0  0  0  0  0  0  0  0  0  0  0  0
    1.9017    0.8609    0.4846 H   0  0  0  0  0  0  0  0  0  0  0  0
   -0.1814   -0.0042    2.1525 H   0  0  0  0  0  0  0  0  0  0  0  0
   -2.6026   -0.0043    2.1820 H   0  0  0  0  0  0  0  0  0  0  0  0
   -2.6514   -0.0242   -2.1154 H   0  0  0  0  0  0  0  0  0  0  0  0
   -0.1765   -0.0317   -2.1459 H   0  0  0  0  0  0  0  0  0  0  0  0
  1  2  1  0
  2  3  1  0
  3  4  2  0
  4  5  1  0
  3  6  1  0
  6  7  1  0
  6  8  2  0
  8  9  1  0
  9 10  2  0
 10 11  1  0
 11 12  2  0
 12 13  1  0
 12 14  1  0
 14 15  2  0
 15  9  1  0
  1 16  1  0
  1 17  1  0
  1 18  1  0
  2 19  1  0
  2 20  1  0
  5 21  1  0
  7 22  1  0
  7 23  1  0
  7 24  1  0
  8 25  1  0
 10 26  1  0
 11 27  1  0
 14 28  1  0
 15 29  1  0
M  END
>  <_MoleculeID>  (208) 
smi22

>  <_InputIndex>  (208) 
22

>  <_InputSMILES>  (208) 
CC\C(=N/O)\C(\C)=C\c1ccc(F)cc1

>  <_InputInChIKey>  (208) 
HKROEBDHHKMNBZ-CHBKHGQFSA-N

>  <_SMILES>  (208) 
CCC(=N\O)/C(C)=C/c1ccc(F)cc1

>  <_InChIKey>  (208) 
HKROEBDHHKMNBZ-CHBKHGQFSA-N

$$$$
smi22_conf3
     RDKit          3D

 29 29  0  0  0  0  0  0  0  0999 V2000
    3.7515    1.6039   -1.3074 C   0  0  0  0  0  0  0  0  0  0  0  0
    4.3267    0.2036   -1.4332 C   0  0  0  0  0  0  0  0  0  0  0  0
    3.6878   -0.7631   -0.4434 C   0  0  0  0  0  0  0  0  0  0  0  0
    4.3470   -1.4079    0.4767 N   0  0  0  0  0  0  0  0  0  0  0  0
    5.7062   -1.0934    0.4533 O   0  0  0  0  0  0  0  0  0  0  0  0
    2.2057   -0.9601   -0.5543 C   0  0  0  0  0  0  0  0  0  0  0  0
    1.7259   -2.1922   -1.2553 C   0  0  0  0  0  0  0  0  0  0  0  0
    1.4490    0.0000   -0.0000 C   0  0  0  0  0  0  0  0  0  0  0  0
    0.0000    0.0000    0.0000 C   0  0  0  0  0  0  0  0  0  0  0  0
   -0.7111    0.0000    1.2027 C   0  0  0  0  0  0  0  0  0  0  0  0
   -2.1138    0.0010    1.2110 C   0  0  0  0  0  0  0  0  0  0  0  0
   -2.8620   -0.0009    0.0236 C   0  0  0  0  0  0  0  0  0  0  0  0
   -4.2040   -0.0004    0.0238 F   0  0  0  0  0  0  0  0  0  0  0  0
   -2.1126   -0.0155   -1.1687 C   0  0  0  0  0  0  0  0  0  0  0  0
   -0.7114   -0.0194   -1.1991 C   0  0  0  0  0  0  0  0  0  0  0  0
    4.2331    2.2764   -2.0241 H   0  0  0  0  0  0  0  0  0  0  0  0
    2.6748    1.6160   -1.5020 H   0  0  0  0  0  0  0  0  0  0  0  0
    3.9087    2.0092   -0.3032 H   0  0  0  0  0  0  0  0  0  0  0  0
    5.4089    0.2368   -1.2630 H   0  0  0  0  0  0  0  0  0  0  0  0
    4.1868   -0.1762   -2.4512 H   0  0  0  0  0  0  0  0  0  0  0  0
    6.0466   -1.6423    1.1797 H   0  0  0  0  0  0  0  0  0  0  0  0
    0.6471   -2.3423   -1.1514 H   0  0  0  0  0  0  0  0  0  0  0  0
    2.2158   -3.0788   -0.8391 H   0  0  0  0  0  0  0  0  0  0  0  0
    1.9508   -2.1421   -2.3251 H   0  0  0  0  0  0  0  0  0  0  0  0
    1.9017    0.8609    0.4846 H   0  0  0  0  0  0  0  0  0  0  0  0
   -0.1814   -0.0042    2.1525 H   0  0  0  0  0  0  0  0  0  0  0  0
   -2.6026   -0.0043    2.1820 H   0  0  0  0  0  0  0  0  0  0  0  0
   -2.6514   -0.0242   -2.1154 H   0  0  0  0  0  0  0  0  0  0  0  0
   -0.1765   -0.0317   -2.1459 H   0  0  0  0  0  0  0  0  0  0  0  0
  1  2  1  0
  2  3  1  0
  3  4  2  0
  4  5  1  0
  3  6  1  0
  6  7  1  0
  6  8  2  0
  8  9  1  0
  9 10  2  0
 10 11  1  0
 11 12  2  0
 12 13  1  0
 12 14  1  0
 14 15  2  0
 15  9  1  0
  1 16  1  0
  1 17  1  0
  1 18  1  0
  2 19  1  0
  2 20  1  0
  5 21  1  0
  7 22  1  0
  7 23  1  0
  7 24  1  0
  8 25  1  0
 10 26  1  0
 11 27  1  0
 14 28  1  0
 15 29  1  0
M  END
>  <_MoleculeID>  (209) 
smi22

>  <_InputIndex>  (209) 
22

>  <_InputSMILES>  (209) 
CC\C(=N/O)\C(\C)=C\c1ccc(F)cc1

>  <_InputInChIKey>  (209) 
HKROEBDHHKMNBZ-CHBKHGQFSA-N

>  <_SMILES>  (209) 
CCC(=N\O)/C(C)=C/c1ccc(F)cc1

>  <_InChIKey>  (209) 
HKROEBDHHKMNBZ-CHBKHGQFSA-N

$$$$
smi22_conf4
     RDKit          3D

 29 29  0  0  0  0  0  0  0  0999 V2000
    3.3009   -1.6572   -1.8865 C   0  0  0  0  0  0  0  0  0  0  0  0
    4.3267   -1.1394   -0.8929 C   0  0  0  0  0  0  0  0  0  0  0  0
    3.6878   -0.7656    0.4392 C   0  0  0  0  0  0  0  0  0  0  0  0
    4.3470   -0.2911    1.4576 N   0  0  0  0  0  0  0  0  0  0  0  0
    5.7062   -0.1541    1.1736 O   0  0  0  0  0  0  0  0  0  0  0  0
    2.2057   -0.9601    0.5543 C   0  0  0  0  0  0  0  0  0  0  0  0
    1.7259   -2.1832    1.2709 C   0  0  0  0  0  0  0  0  0  0  0  0
    1.4490   -0.0000    0.0000 C   0  0  0  0  0  0  0  0  0  0  0  0
    0.0000    0.0000    0.0000 C   0  0  0  0  0  0  0  0  0  0  0  0
   -0.7111    0.0000    1.2027 C   0  0  0  0  0  0  0  0  0  0  0  0
   -2.1138    0.0010    1.2110 C   0  0  0  0  0  0  0  0  0  0  0  0
   -2.8620   -0.0009    0.0236 C   0  0  0  0  0  0  0  0  0  0  0  0
   -4.2040   -0.0004    0.0238 F   0  0  0  0  0  0  0  0  0  0  0  0
   -2.1126   -0.0155   -1.1687 C   0  0  0  0  0  0  0  0  0  0  0  0
   -0.7114   -0.0194   -1.1991 C   0  0  0  0  0  0  0  0  0  0  0  0
    3.7864   -1.9106   -2.8341 H   0  0  0  0  0  0  0  0  0  0  0  0
    2.7960   -2.5536   -1.5139 H   0  0  0  0  0  0  0  0  0  0  0  0
    2.5308   -0.9068   -2.0898 H   0  0  0  0  0  0  0  0  0  0  0  0
    4.8319   -0.2625   -1.3134 H   0  0  0  0  0  0  0  0  0  0  0  0
    5.1054   -1.8909   -0.7223 H   0  0  0  0  0  0  0  0  0  0  0  0
    6.0466    0.2005    2.0121 H   0  0  0  0  0  0  0  0  0  0  0  0
    0.6471   -2.1683    1.4528 H   0  0  0  0  0  0  0  0  0  0  0  0
    2.2158   -2.2661    2.2468 H   0  0  0  0  0  0  0  0  0  0  0  0
    1.9508   -3.0847    0.6925 H   0  0  0  0  0  0  0  0  0  0  0  0
    1.9017    0.8502   -0.5033 H   0  0  0  0  0  0  0  0  0  0  0  0
   -0.1814   -0.0042    2.1525 H   0  0  0  0  0  0  0  0  0  0  0  0
   -2.6026   -0.0043    2.1820 H   0  0  0  0  0  0  0  0  0  0  0  0
   -2.6514   -0.0242   -2.1154 H   0  0  0  0  0  0  0  0  0  0  0  0
   -0.1765   -0.0317   -2.1459 H   0  0  0  0  0  0  0  0  0  0  0  0
  1  2  1  0
  2  3  1  0
  3  4  2  0
  4  5  1  0
  3  6  1  0
  6  7  1  0
  6  8  2  0
  8  9  1  0
  9 10  2  0
 10 11  1  0
 11 12  2  0
 12 13  1  0
 12 14  1  0
 14 15  2  0
 15  9  1  0
  1 16  1  0
  1 17  1  0
  1 18  1  0
  2 19  1  0
  2 20  1  0
  5 21  1  0
  7 22  1  0
  7 23  1  0
  7 24  1  0
  8 25  1  0
 10 26  1  0
 11 27  1  0
 14 28  1  0
 15 29  1  0
M  END
>  <_MoleculeID>  (210) 
smi22

>  <_InputIndex>  (210) 
22

>  <_InputSMILES>  (210) 
CC\C(=N/O)\C(\C)=C\c1ccc(F)cc1

>  <_InputInChIKey>  (210) 
HKROEBDHHKMNBZ-CHBKHGQFSA-N

>  <_SMILES>  (210) 
CCC(=N\O)/C(C)=C/c1ccc(F)cc1

>  <_InChIKey>  (210) 
HKROEBDHHKMNBZ-CHBKHGQFSA-N

$$$$
smi22_conf5
     RDKit          3D

 29 29  0  0  0  0  0  0  0  0999 V2000
    3.7603    1.5944    1.3215 C   0  0  0  0  0  0  0  0  0  0  0  0
    4.3328    0.1918    1.4340 C   0  0  0  0  0  0  0  0  0  0  0  0
    3.6878   -0.7656    0.4392 C   0  0  0  0  0  0  0  0  0  0  0  0
    4.3437   -1.4133   -0.4814 N   0  0  0  0  0  0  0  0  0  0  0  0
    5.7098   -1.1336   -0.4345 O   0  0  0  0  0  0  0  0  0  0  0  0
    2.2057   -0.9601    0.5543 C   0  0  0  0  0  0  0  0  0  0  0  0
    1.7259   -2.1832    1.2709 C   0  0  0  0  0  0  0  0  0  0  0  0
    1.4490   -0.0000    0.0000 C   0  0  0  0  0  0  0  0  0  0  0  0
    0.0000    0.0000    0.0000 C   0  0  0  0  0  0  0  0  0  0  0  0
   -0.7111    0.0000    1.2027 C   0  0  0  0  0  0  0  0  0  0  0  0
   -2.1138    0.0010    1.2110 C   0  0  0  0  0  0  0  0  0  0  0  0
   -2.8620   -0.0009    0.0236 C   0  0  0  0  0  0  0  0  0  0  0  0
   -4.2040   -0.0004    0.0238 F   0  0  0  0  0  0  0  0  0  0  0  0
   -2.1126   -0.0155   -1.1687 C   0  0  0  0  0  0  0  0  0  0  0  0
   -0.7114   -0.0194   -1.1991 C   0  0  0  0  0  0  0  0  0  0  0  0
    4.2364    2.2569    2.0511 H   0  0  0  0  0  0  0  0  0  0  0  0
    3.9213    2.0164    0.3248 H   0  0  0  0  0  0  0  0  0  0  0  0
    2.6825    1.5999    1.5107 H   0  0  0  0  0  0  0  0  0  0  0  0
    4.1807   -0.1840    2.4522 H   0  0  0  0  0  0  0  0  0  0  0  0
    5.4159    0.2078    1.2704 H   0  0  0  0  0  0  0  0  0  0  0  0
    6.0465   -1.6792   -1.1651 H   0  0  0  0  0  0  0  0  0  0  0  0
    0.6471   -2.1683    1.4528 H   0  0  0  0  0  0  0  0  0  0  0  0
    2.2158   -2.2661    2.2468 H   0  0  0  0  0  0  0  0  0  0  0  0
    1.9508   -3.0847    0.6925 H   0  0  0  0  0  0  0  0  0  0  0  0
    1.9017    0.8502   -0.5033 H   0  0  0  0  0  0  0  0  0  0  0  0
   -0.1814   -0.0042    2.1525 H   0  0  0  0  0  0  0  0  0  0  0  0
   -2.6026   -0.0043    2.1820 H   0  0  0  0  0  0  0  0  0  0  0  0
   -2.6514   -0.0242   -2.1154 H   0  0  0  0  0  0  0  0  0  0  0  0
   -0.1765   -0.0317   -2.1459 H   0  0  0  0  0  0  0  0  0  0  0  0
  1  2  1  0
  2  3  1  0
  3  4  2  0
  4  5  1  0
  3  6  1  0
  6  7  1  0
  6  8  2  0
  8  9  1  0
  9 10  2  0
 10 11  1  0
 11 12  2  0
 12 13  1  0
 12 14  1  0
 14 15  2  0
 15  9  1  0
  1 16  1  0
  1 17  1  0
  1 18  1  0
  2 19  1  0
  2 20  1  0
  5 21  1  0
  7 22  1  0
  7 23  1  0
  7 24  1  0
  8 25  1  0
 10 26  1  0
 11 27  1  0
 14 28  1  0
 15 29  1  0
M  END
>  <_MoleculeID>  (211) 
smi22

>  <_InputIndex>  (211) 
22

>  <_InputSMILES>  (211) 
CC\C(=N/O)\C(\C)=C\c1ccc(F)cc1

>  <_InputInChIKey>  (211) 
HKROEBDHHKMNBZ-CHBKHGQFSA-N

>  <_SMILES>  (211) 
CCC(=N\O)/C(C)=C/c1ccc(F)cc1

>  <_InChIKey>  (211) 
HKROEBDHHKMNBZ-CHBKHGQFSA-N

$$$$
smi23_conf0
     RDKit          3D

 49 50  0  0  0  0  0  0  0  0999 V2000
   -0.4669    0.0000    1.4446 C   0  0  0  0  0  0  0  0  0  0  0  0
    0.0000    0.0000    0.0000 C   0  0  0  0  0  0  0  0  0  0  0  0
    1.4180   -0.0000    0.0000 O   0  0  0  0  0  0  0  0  0  0  0  0
    2.0164   -0.0000   -1.2303 C   0  0  0  0  0  0  0  0  0  0  0  0
    1.4017   -0.0000   -2.2914 O   0  0  0  0  0  0  0  0  0  0  0  0
    3.3892    0.0255   -1.0656 N   0  0  0  0  0  0  0  0  0  0  0  0
    4.3307    0.0561   -2.0945 C   0  0  0  0  0  0  0  0  0  0  0  0
    3.9240    0.0439   -3.4311 C   0  0  0  0  0  0  0  0  0  0  0  0
    4.8646    0.0756   -4.4713 C   0  0  0  0  0  0  0  0  0  0  0  0
    6.2450    0.1176   -4.2213 C   0  0  0  0  0  0  0  0  0  0  0  0
    7.1884    0.1487   -5.2526 N   0  0  0  0  0  0  0  0  0  0  0  0
    6.8801    0.1422   -6.6653 C   0  0  0  0  0  0  0  0  0  0  0  0
    8.0588    0.1803   -7.5695 C   0  0  0  0  0  0  0  0  0  0  0  0
    8.5862    1.3972   -7.9998 C   0  0  0  0  0  0  0  0  0  0  0  0
    7.9641    2.6716   -7.5558 C   0  0  0  0  0  0  0  0  0  0  0  0
    9.6965    1.4027   -8.8552 C   0  0  0  0  0  0  0  0  0  0  0  0
   10.3304    0.2302   -9.3099 C   0  0  0  0  0  0  0  0  0  0  0  0
   11.5088    0.2682  -10.2144 C   0  0  0  0  0  0  0  0  0  0  0  0
    9.7840   -0.9754   -8.8433 C   0  0  0  0  0  0  0  0  0  0  0  0
    8.6717   -1.0031   -7.9891 C   0  0  0  0  0  0  0  0  0  0  0  0
    8.1538   -2.3181   -7.5302 C   0  0  0  0  0  0  0  0  0  0  0  0
    6.6186    0.1140   -2.8635 C   0  0  0  0  0  0  0  0  0  0  0  0
    5.6955    0.0800   -1.8095 C   0  0  0  0  0  0  0  0  0  0  0  0
    6.1291    0.0772   -0.4804 N   0  0  0  0  0  0  0  0  0  0  0  0
   -1.5591    0.0008    1.5015 H   0  0  0  0  0  0  0  0  0  0  0  0
   -0.0845    0.8795    1.9734 H   0  0  0  0  0  0  0  0  0  0  0  0
   -0.0857   -0.8803    1.9730 H   0  0  0  0  0  0  0  0  0  0  0  0
   -0.3807    0.8989   -0.4984 H   0  0  0  0  0  0  0  0  0  0  0  0
   -0.3806   -0.8989   -0.4985 H   0  0  0  0  0  0  0  0  0  0  0  0
    3.7368    0.0881   -0.1135 H   0  0  0  0  0  0  0  0  0  0  0  0
    2.8664    0.0062   -3.6818 H   0  0  0  0  0  0  0  0  0  0  0  0
    4.4788    0.0585   -5.4875 H   0  0  0  0  0  0  0  0  0  0  0  0
    8.1602    0.2931   -5.0025 H   0  0  0  0  0  0  0  0  0  0  0  0
    6.1735    0.9456   -6.9055 H   0  0  0  0  0  0  0  0  0  0  0  0
    6.3368   -0.7874   -6.8774 H   0  0  0  0  0  0  0  0  0  0  0  0
    8.4936    3.5262   -7.9872 H   0  0  0  0  0  0  0  0  0  0  0  0
    7.9828    2.7587   -6.4652 H   0  0  0  0  0  0  0  0  0  0  0  0
    6.9173    2.7289   -7.8720 H   0  0  0  0  0  0  0  0  0  0  0  0
   10.0906    2.3627   -9.1863 H   0  0  0  0  0  0  0  0  0  0  0  0
   11.7780    1.3024  -10.4485 H   0  0  0  0  0  0  0  0  0  0  0  0
   11.3041   -0.2634  -11.1486 H   0  0  0  0  0  0  0  0  0  0  0  0
   12.3773   -0.2091   -9.7485 H   0  0  0  0  0  0  0  0  0  0  0  0
   10.2145   -1.9328   -9.1260 H   0  0  0  0  0  0  0  0  0  0  0  0
    8.7516   -3.1322   -7.9504 H   0  0  0  0  0  0  0  0  0  0  0  0
    7.1104   -2.4555   -7.8297 H   0  0  0  0  0  0  0  0  0  0  0  0
    8.1955   -2.3977   -6.4389 H   0  0  0  0  0  0  0  0  0  0  0  0
    7.6804    0.1390   -2.6216 H   0  0  0  0  0  0  0  0  0  0  0  0
    5.4773    0.0529    0.2975 H   0  0  0  0  0  0  0  0  0  0  0  0
    7.1098    0.0985   -0.2173 H   0  0  0  0  0  0  0  0  0  0  0  0
  1  2  1  0
  2  3  1  0
  3  4  1  0
  4  5  2  0
  4  6  1  0
  6  7  1  0
  7  8  2  0
  8  9  1  0
  9 10  2  0
 10 11  1  0
 11 12  1  0
 12 13  1  0
 13 14  2  0
 14 15  1  0
 14 16  1  0
 16 17  2  0
 17 18  1  0
 17 19  1  0
 19 20  2  0
 20 21  1  0
 10 22  1  0
 22 23  2  0
 23 24  1  0
 23  7  1  0
 20 13  1  0
  1 25  1  0
  1 26  1  0
  1 27  1  0
  2 28  1  0
  2 29  1  0
  6 30  1  0
  8 31  1  0
  9 32  1  0
 11 33  1  0
 12 34  1  0
 12 35  1  0
 15 36  1  0
 15 37  1  0
 15 38  1  0
 16 39  1  0
 18 40  1  0
 18 41  1  0
 18 42  1  0
 19 43  1  0
 21 44  1  0
 21 45  1  0
 21 46  1  0
 22 47  1  0
 24 48  1  0
 24 49  1  0
M  END
>  <_MoleculeID>  (212) 
smi23

>  <_InputIndex>  (212) 
23

>  <_InputSMILES>  (212) 
CCOC(=O)Nc1ccc(NCc2c(C)cc(C)cc2C)cc1N

>  <_InputInChIKey>  (212) 
SCOOTUMXCXKEAD-UHFFFAOYSA-N

>  <_SMILES>  (212) 
CCOC(=O)Nc1ccc(NCc2c(C)cc(C)cc2C)cc1N

>  <_InChIKey>  (212) 
SCOOTUMXCXKEAD-UHFFFAOYSA-N

$$$$
smi23_conf1
     RDKit          3D

 49 50  0  0  0  0  0  0  0  0999 V2000
   -0.4669    0.0000    1.4446 C   0  0  0  0  0  0  0  0  0  0  0  0
    0.0000    0.0000    0.0000 C   0  0  0  0  0  0  0  0  0  0  0  0
    1.4180   -0.0000    0.0000 O   0  0  0  0  0  0  0  0  0  0  0  0
    2.0164   -0.0000   -1.2303 C   0  0  0  0  0  0  0  0  0  0  0  0
    1.4017   -0.0000   -2.2914 O   0  0  0  0  0  0  0  0  0  0  0  0
    3.3892    0.0255   -1.0656 N   0  0  0  0  0  0  0  0  0  0  0  0
    4.3307    0.0561   -2.0945 C   0  0  0  0  0  0  0  0  0  0  0  0
    4.8490   -1.1303   -2.6197 C   0  0  0  0  0  0  0  0  0  0  0  0
    5.7952   -1.1078   -3.6550 C   0  0  0  0  0  0  0  0  0  0  0  0
    6.2637    0.0954   -4.2048 C   0  0  0  0  0  0  0  0  0  0  0  0
    7.2069    0.1259   -5.2363 N   0  0  0  0  0  0  0  0  0  0  0  0
    7.8056   -1.0366   -5.8536 C   0  0  0  0  0  0  0  0  0  0  0  0
    8.7849   -0.7453   -6.9327 C   0  0  0  0  0  0  0  0  0  0  0  0
   10.1381   -0.5803   -6.6397 C   0  0  0  0  0  0  0  0  0  0  0  0
   10.6100   -0.6919   -5.2351 C   0  0  0  0  0  0  0  0  0  0  0  0
   11.0385   -0.3029   -7.6774 C   0  0  0  0  0  0  0  0  0  0  0  0
   10.6537   -0.1860   -9.0270 C   0  0  0  0  0  0  0  0  0  0  0  0
   11.6327    0.1057  -10.1062 C   0  0  0  0  0  0  0  0  0  0  0  0
    9.2876   -0.3750   -9.2874 C   0  0  0  0  0  0  0  0  0  0  0  0
    8.3695   -0.6507   -8.2633 C   0  0  0  0  0  0  0  0  0  0  0  0
    6.9395   -0.8464   -8.6171 C   0  0  0  0  0  0  0  0  0  0  0  0
    5.7307    1.2709   -3.6415 C   0  0  0  0  0  0  0  0  0  0  0  0
    4.7870    1.2707   -2.6053 C   0  0  0  0  0  0  0  0  0  0  0  0
    4.2957    2.4724   -2.0868 N   0  0  0  0  0  0  0  0  0  0  0  0
   -1.5591    0.0008    1.5015 H   0  0  0  0  0  0  0  0  0  0  0  0
   -0.0845    0.8795    1.9734 H   0  0  0  0  0  0  0  0  0  0  0  0
   -0.0857   -0.8803    1.9730 H   0  0  0  0  0  0  0  0  0  0  0  0
   -0.3807    0.8989   -0.4984 H   0  0  0  0  0  0  0  0  0  0  0  0
   -0.3806   -0.8989   -0.4985 H   0  0  0  0  0  0  0  0  0  0  0  0
    3.7368    0.0881   -0.1135 H   0  0  0  0  0  0  0  0  0  0  0  0
    4.5248   -2.0912   -2.2267 H   0  0  0  0  0  0  0  0  0  0  0  0
    6.1600   -2.0675   -4.0125 H   0  0  0  0  0  0  0  0  0  0  0  0
    7.4152    1.0219   -5.6624 H   0  0  0  0  0  0  0  0  0  0  0  0
    7.0278   -1.7261   -6.2033 H   0  0  0  0  0  0  0  0  0  0  0  0
    8.3402   -1.5856   -5.0680 H   0  0  0  0  0  0  0  0  0  0  0  0
   11.6906   -0.5304   -5.1808 H   0  0  0  0  0  0  0  0  0  0  0  0
   10.3792   -1.6778   -4.8204 H   0  0  0  0  0  0  0  0  0  0  0  0
   10.1250    0.0545   -4.5972 H   0  0  0  0  0  0  0  0  0  0  0  0
   12.0907   -0.1707   -7.4287 H   0  0  0  0  0  0  0  0  0  0  0  0
   12.6400    0.2068   -9.6915 H   0  0  0  0  0  0  0  0  0  0  0  0
   11.3734    1.0292  -10.6326 H   0  0  0  0  0  0  0  0  0  0  0  0
   11.6525   -0.7003  -10.8472 H   0  0  0  0  0  0  0  0  0  0  0  0
    8.8969   -0.3206  -10.3005 H   0  0  0  0  0  0  0  0  0  0  0  0
    6.7948   -0.7411   -9.6963 H   0  0  0  0  0  0  0  0  0  0  0  0
    6.3046   -0.1184   -8.1031 H   0  0  0  0  0  0  0  0  0  0  0  0
    6.5960   -1.8447   -8.3266 H   0  0  0  0  0  0  0  0  0  0  0  0
    6.0706    2.2292   -4.0324 H   0  0  0  0  0  0  0  0  0  0  0  0
    3.6121    2.4944   -1.3365 H   0  0  0  0  0  0  0  0  0  0  0  0
    4.5903    3.3836   -2.4250 H   0  0  0  0  0  0  0  0  0  0  0  0
  1  2  1  0
  2  3  1  0
  3  4  1  0
  4  5  2  0
  4  6  1  0
  6  7  1  0
  7  8  2  0
  8  9  1  0
  9 10  2  0
 10 11  1  0
 11 12  1  0
 12 13  1  0
 13 14  2  0
 14 15  1  0
 14 16  1  0
 16 17  2  0
 17 18  1  0
 17 19  1  0
 19 20  2  0
 20 21  1  0
 10 22  1  0
 22 23  2  0
 23 24  1  0
 23  7  1  0
 20 13  1  0
  1 25  1  0
  1 26  1  0
  1 27  1  0
  2 28  1  0
  2 29  1  0
  6 30  1  0
  8 31  1  0
  9 32  1  0
 11 33  1  0
 12 34  1  0
 12 35  1  0
 15 36  1  0
 15 37  1  0
 15 38  1  0
 16 39  1  0
 18 40  1  0
 18 41  1  0
 18 42  1  0
 19 43  1  0
 21 44  1  0
 21 45  1  0
 21 46  1  0
 22 47  1  0
 24 48  1  0
 24 49  1  0
M  END
>  <_MoleculeID>  (213) 
smi23

>  <_InputIndex>  (213) 
23

>  <_InputSMILES>  (213) 
CCOC(=O)Nc1ccc(NCc2c(C)cc(C)cc2C)cc1N

>  <_InputInChIKey>  (213) 
SCOOTUMXCXKEAD-UHFFFAOYSA-N

>  <_SMILES>  (213) 
CCOC(=O)Nc1ccc(NCc2c(C)cc(C)cc2C)cc1N

>  <_InChIKey>  (213) 
SCOOTUMXCXKEAD-UHFFFAOYSA-N

$$$$
smi23_conf2
     RDKit          3D

 49 50  0  0  0  0  0  0  0  0999 V2000
   -0.4669    0.0000    1.4446 C   0  0  0  0  0  0  0  0  0  0  0  0
    0.0000    0.0000    0.0000 C   0  0  0  0  0  0  0  0  0  0  0  0
    1.4180    0.0000   -0.0000 O   0  0  0  0  0  0  0  0  0  0  0  0
    2.0164    1.2303   -0.0000 C   0  0  0  0  0  0  0  0  0  0  0  0
    1.4017    2.2914   -0.0000 O   0  0  0  0  0  0  0  0  0  0  0  0
    3.3892    1.0656    0.0255 N   0  0  0  0  0  0  0  0  0  0  0  0
    4.3307    2.0945    0.0561 C   0  0  0  0  0  0  0  0  0  0  0  0
    3.9240    3.4311    0.0439 C   0  0  0  0  0  0  0  0  0  0  0  0
    4.8646    4.4713    0.0756 C   0  0  0  0  0  0  0  0  0  0  0  0
    6.2450    4.2213    0.1176 C   0  0  0  0  0  0  0  0  0  0  0  0
    7.1884    5.2526    0.1487 N   0  0  0  0  0  0  0  0  0  0  0  0
    8.6222    5.0702    0.1925 C   0  0  0  0  0  0  0  0  0  0  0  0
    9.4182    6.3247    0.2196 C   0  0  0  0  0  0  0  0  0  0  0  0
    9.8362    6.9277   -0.9661 C   0  0  0  0  0  0  0  0  0  0  0  0
    9.4880    6.3112   -2.2726 C   0  0  0  0  0  0  0  0  0  0  0  0
   10.5888    8.1088   -0.9100 C   0  0  0  0  0  0  0  0  0  0  0  0
   10.9496    8.7415    0.2953 C   0  0  0  0  0  0  0  0  0  0  0  0
   11.7461    9.9957    0.3226 C   0  0  0  0  0  0  0  0  0  0  0  0
   10.4976    8.1166    1.4679 C   0  0  0  0  0  0  0  0  0  0  0  0
    9.7457    6.9330    1.4340 C   0  0  0  0  0  0  0  0  0  0  0  0
    9.2955    6.3336    2.7171 C   0  0  0  0  0  0  0  0  0  0  0  0
    6.6186    2.8635    0.1140 C   0  0  0  0  0  0  0  0  0  0  0  0
    5.6955    1.8095    0.0800 C   0  0  0  0  0  0  0  0  0  0  0  0
    6.1291    0.4804    0.0772 N   0  0  0  0  0  0  0  0  0  0  0  0
   -1.5591    0.0008    1.5015 H   0  0  0  0  0  0  0  0  0  0  0  0
   -0.0845    0.8795    1.9734 H   0  0  0  0  0  0  0  0  0  0  0  0
   -0.0857   -0.8803    1.9730 H   0  0  0  0  0  0  0  0  0  0  0  0
   -0.3807    0.8989   -0.4984 H   0  0  0  0  0  0  0  0  0  0  0  0
   -0.3806   -0.8989   -0.4985 H   0  0  0  0  0  0  0  0  0  0  0  0
    3.7368    0.1135    0.0881 H   0  0  0  0  0  0  0  0  0  0  0  0
    2.8664    3.6818    0.0062 H   0  0  0  0  0  0  0  0  0  0  0  0
    4.4788    5.4875    0.0585 H   0  0  0  0  0  0  0  0  0  0  0  0
    6.8570    6.2027    0.0255 H   0  0  0  0  0  0  0  0  0  0  0  0
    8.9485    4.4143   -0.6236 H   0  0  0  0  0  0  0  0  0  0  0  0
    8.8539    4.5174    1.1118 H   0  0  0  0  0  0  0  0  0  0  0  0
    9.8959    6.9045   -3.0962 H   0  0  0  0  0  0  0  0  0  0  0  0
    8.4033    6.2364   -2.3949 H   0  0  0  0  0  0  0  0  0  0  0  0
    9.8980    5.2988   -2.3509 H   0  0  0  0  0  0  0  0  0  0  0  0
   10.9121    8.5620   -1.8463 H   0  0  0  0  0  0  0  0  0  0  0  0
   11.9862   10.3183   -0.6948 H   0  0  0  0  0  0  0  0  0  0  0  0
   12.6784    9.8568    0.8782 H   0  0  0  0  0  0  0  0  0  0  0  0
   11.1903   10.8035    0.8102 H   0  0  0  0  0  0  0  0  0  0  0  0
   10.7118    8.5386    2.4467 H   0  0  0  0  0  0  0  0  0  0  0  0
    9.6359    6.9391    3.5622 H   0  0  0  0  0  0  0  0  0  0  0  0
    9.6826    5.3168    2.8327 H   0  0  0  0  0  0  0  0  0  0  0  0
    8.2029    6.2762    2.7619 H   0  0  0  0  0  0  0  0  0  0  0  0
    7.6804    2.6216    0.1390 H   0  0  0  0  0  0  0  0  0  0  0  0
    5.4773   -0.2975    0.0529 H   0  0  0  0  0  0  0  0  0  0  0  0
    7.1098    0.2173    0.0985 H   0  0  0  0  0  0  0  0  0  0  0  0
  1  2  1  0
  2  3  1  0
  3  4  1  0
  4  5  2  0
  4  6  1  0
  6  7  1  0
  7  8  2  0
  8  9  1  0
  9 10  2  0
 10 11  1  0
 11 12  1  0
 12 13  1  0
 13 14  2  0
 14 15  1  0
 14 16  1  0
 16 17  2  0
 17 18  1  0
 17 19  1  0
 19 20  2  0
 20 21  1  0
 10 22  1  0
 22 23  2  0
 23 24  1  0
 23  7  1  0
 20 13  1  0
  1 25  1  0
  1 26  1  0
  1 27  1  0
  2 28  1  0
  2 29  1  0
  6 30  1  0
  8 31  1  0
  9 32  1  0
 11 33  1  0
 12 34  1  0
 12 35  1  0
 15 36  1  0
 15 37  1  0
 15 38  1  0
 16 39  1  0
 18 40  1  0
 18 41  1  0
 18 42  1  0
 19 43  1  0
 21 44  1  0
 21 45  1  0
 21 46  1  0
 22 47  1  0
 24 48  1  0
 24 49  1  0
M  END
>  <_MoleculeID>  (214) 
smi23

>  <_InputIndex>  (214) 
23

>  <_InputSMILES>  (214) 
CCOC(=O)Nc1ccc(NCc2c(C)cc(C)cc2C)cc1N

>  <_InputInChIKey>  (214) 
SCOOTUMXCXKEAD-UHFFFAOYSA-N

>  <_SMILES>  (214) 
CCOC(=O)Nc1ccc(NCc2c(C)cc(C)cc2C)cc1N

>  <_InChIKey>  (214) 
SCOOTUMXCXKEAD-UHFFFAOYSA-N

$$$$
smi23_conf3
     RDKit          3D

 49 50  0  0  0  0  0  0  0  0999 V2000
   -0.4669    0.0000    1.4446 C   0  0  0  0  0  0  0  0  0  0  0  0
    0.0000    0.0000    0.0000 C   0  0  0  0  0  0  0  0  0  0  0  0
    1.4180    0.0000    0.0000 O   0  0  0  0  0  0  0  0  0  0  0  0
    2.0164   -1.2303    0.0000 C   0  0  0  0  0  0  0  0  0  0  0  0
    1.4017   -2.2914   -0.0000 O   0  0  0  0  0  0  0  0  0  0  0  0
    3.3892   -1.0656   -0.0255 N   0  0  0  0  0  0  0  0  0  0  0  0
    4.3307   -2.0945   -0.0561 C   0  0  0  0  0  0  0  0  0  0  0  0
    3.9240   -3.4311   -0.0439 C   0  0  0  0  0  0  0  0  0  0  0  0
    4.8646   -4.4713   -0.0756 C   0  0  0  0  0  0  0  0  0  0  0  0
    6.2450   -4.2213   -0.1176 C   0  0  0  0  0  0  0  0  0  0  0  0
    7.1884   -5.2526   -0.1487 N   0  0  0  0  0  0  0  0  0  0  0  0
    8.6222   -5.0702   -0.1925 C   0  0  0  0  0  0  0  0  0  0  0  0
    9.4182   -6.3247   -0.2196 C   0  0  0  0  0  0  0  0  0  0  0  0
    9.7624   -6.9228   -1.4312 C   0  0  0  0  0  0  0  0  0  0  0  0
    9.3275   -6.3053   -2.7110 C   0  0  0  0  0  0  0  0  0  0  0  0
   10.5111   -8.1077   -1.4262 C   0  0  0  0  0  0  0  0  0  0  0  0
   10.9532   -8.7402   -0.2482 C   0  0  0  0  0  0  0  0  0  0  0  0
   11.7488   -9.9950   -0.2751 C   0  0  0  0  0  0  0  0  0  0  0  0
   10.6035   -8.1017    0.9517 C   0  0  0  0  0  0  0  0  0  0  0  0
    9.8526   -6.9170    0.9689 C   0  0  0  0  0  0  0  0  0  0  0  0
    9.5273   -6.2944    2.2784 C   0  0  0  0  0  0  0  0  0  0  0  0
    6.6186   -2.8635   -0.1140 C   0  0  0  0  0  0  0  0  0  0  0  0
    5.6955   -1.8095   -0.0800 C   0  0  0  0  0  0  0  0  0  0  0  0
    6.1291   -0.4804   -0.0772 N   0  0  0  0  0  0  0  0  0  0  0  0
   -1.5591    0.0008    1.5015 H   0  0  0  0  0  0  0  0  0  0  0  0
   -0.0845    0.8795    1.9734 H   0  0  0  0  0  0  0  0  0  0  0  0
   -0.0857   -0.8803    1.9730 H   0  0  0  0  0  0  0  0  0  0  0  0
   -0.3807    0.8989   -0.4984 H   0  0  0  0  0  0  0  0  0  0  0  0
   -0.3806   -0.8989   -0.4985 H   0  0  0  0  0  0  0  0  0  0  0  0
    3.7368   -0.1135   -0.0881 H   0  0  0  0  0  0  0  0  0  0  0  0
    2.8664   -3.6818   -0.0062 H   0  0  0  0  0  0  0  0  0  0  0  0
    4.4788   -5.4875   -0.0585 H   0  0  0  0  0  0  0  0  0  0  0  0
    6.8570   -6.2027   -0.0255 H   0  0  0  0  0  0  0  0  0  0  0  0
    8.9485   -4.4143    0.6236 H   0  0  0  0  0  0  0  0  0  0  0  0
    8.8539   -4.5174   -1.1118 H   0  0  0  0  0  0  0  0  0  0  0  0
    9.6743   -6.9013   -3.5603 H   0  0  0  0  0  0  0  0  0  0  0  0
    9.7196   -5.2886   -2.8097 H   0  0  0  0  0  0  0  0  0  0  0  0
    8.2357   -6.2431   -2.7661 H   0  0  0  0  0  0  0  0  0  0  0  0
   10.7650   -8.5640   -2.3821 H   0  0  0  0  0  0  0  0  0  0  0  0
   11.9185  -10.3181   -1.3064 H   0  0  0  0  0  0  0  0  0  0  0  0
   11.2369  -10.7963    0.2662 H   0  0  0  0  0  0  0  0  0  0  0  0
   12.7258   -9.8509    0.1982 H   0  0  0  0  0  0  0  0  0  0  0  0
   10.9131   -8.5051    1.9126 H   0  0  0  0  0  0  0  0  0  0  0  0
    9.9465   -6.8859    3.0977 H   0  0  0  0  0  0  0  0  0  0  0  0
    8.4449   -6.2156    2.4177 H   0  0  0  0  0  0  0  0  0  0  0  0
    9.9417   -5.2831    2.3463 H   0  0  0  0  0  0  0  0  0  0  0  0
    7.6804   -2.6216   -0.1390 H   0  0  0  0  0  0  0  0  0  0  0  0
    5.4773    0.2975   -0.0529 H   0  0  0  0  0  0  0  0  0  0  0  0
    7.1098   -0.2173   -0.0985 H   0  0  0  0  0  0  0  0  0  0  0  0
  1  2  1  0
  2  3  1  0
  3  4  1  0
  4  5  2  0
  4  6  1  0
  6  7  1  0
  7  8  2  0
  8  9  1  0
  9 10  2  0
 10 11  1  0
 11 12  1  0
 12 13  1  0
 13 14  2  0
 14 15  1  0
 14 16  1  0
 16 17  2  0
 17 18  1  0
 17 19  1  0
 19 20  2  0
 20 21  1  0
 10 22  1  0
 22 23  2  0
 23 24  1  0
 23  7  1  0
 20 13  1  0
  1 25  1  0
  1 26  1  0
  1 27  1  0
  2 28  1  0
  2 29  1  0
  6 30  1  0
  8 31  1  0
  9 32  1  0
 11 33  1  0
 12 34  1  0
 12 35  1  0
 15 36  1  0
 15 37  1  0
 15 38  1  0
 16 39  1  0
 18 40  1  0
 18 41  1  0
 18 42  1  0
 19 43  1  0
 21 44  1  0
 21 45  1  0
 21 46  1  0
 22 47  1  0
 24 48  1  0
 24 49  1  0
M  END
>  <_MoleculeID>  (215) 
smi23

>  <_InputIndex>  (215) 
23

>  <_InputSMILES>  (215) 
CCOC(=O)Nc1ccc(NCc2c(C)cc(C)cc2C)cc1N

>  <_InputInChIKey>  (215) 
SCOOTUMXCXKEAD-UHFFFAOYSA-N

>  <_SMILES>  (215) 
CCOC(=O)Nc1ccc(NCc2c(C)cc(C)cc2C)cc1N

>  <_InChIKey>  (215) 
SCOOTUMXCXKEAD-UHFFFAOYSA-N

$$$$
smi23_conf4
     RDKit          3D

 49 50  0  0  0  0  0  0  0  0999 V2000
   -0.4669    0.0000    1.4446 C   0  0  0  0  0  0  0  0  0  0  0  0
    0.0000    0.0000    0.0000 C   0  0  0  0  0  0  0  0  0  0  0  0
    1.4180    0.0000   -0.0000 O   0  0  0  0  0  0  0  0  0  0  0  0
    2.0164    1.2303   -0.0000 C   0  0  0  0  0  0  0  0  0  0  0  0
    1.4017    2.2914   -0.0000 O   0  0  0  0  0  0  0  0  0  0  0  0
    3.3892    1.0656    0.0255 N   0  0  0  0  0  0  0  0  0  0  0  0
    4.3307    2.0945    0.0561 C   0  0  0  0  0  0  0  0  0  0  0  0
    4.8490    2.6197   -1.1303 C   0  0  0  0  0  0  0  0  0  0  0  0
    5.7952    3.6550   -1.1078 C   0  0  0  0  0  0  0  0  0  0  0  0
    6.2637    4.2048    0.0954 C   0  0  0  0  0  0  0  0  0  0  0  0
    7.2069    5.2363    0.1259 N   0  0  0  0  0  0  0  0  0  0  0  0
    7.7336    5.8495    1.3248 C   0  0  0  0  0  0  0  0  0  0  0  0
    8.7287    6.9295    1.0975 C   0  0  0  0  0  0  0  0  0  0  0  0
   10.0895    6.6370    1.0141 C   0  0  0  0  0  0  0  0  0  0  0  0
   10.5546    5.2330    1.1577 C   0  0  0  0  0  0  0  0  0  0  0  0
   11.0056    7.6764    0.8025 C   0  0  0  0  0  0  0  0  0  0  0  0
   10.6277    9.0253    0.6578 C   0  0  0  0  0  0  0  0  0  0  0  0
   11.6227   10.1054    0.4308 C   0  0  0  0  0  0  0  0  0  0  0  0
    9.2496    9.2807    0.7298 C   0  0  0  0  0  0  0  0  0  0  0  0
    8.3163    8.2555    0.9438 C   0  0  0  0  0  0  0  0  0  0  0  0
    6.8724    8.6020    1.0005 C   0  0  0  0  0  0  0  0  0  0  0  0
    5.7307    3.6415    1.2709 C   0  0  0  0  0  0  0  0  0  0  0  0
    4.7870    2.6053    1.2707 C   0  0  0  0  0  0  0  0  0  0  0  0
    4.2957    2.0868    2.4724 N   0  0  0  0  0  0  0  0  0  0  0  0
   -1.5591    0.0008    1.5015 H   0  0  0  0  0  0  0  0  0  0  0  0
   -0.0845    0.8795    1.9734 H   0  0  0  0  0  0  0  0  0  0  0  0
   -0.0857   -0.8803    1.9730 H   0  0  0  0  0  0  0  0  0  0  0  0
   -0.3807    0.8989   -0.4984 H   0  0  0  0  0  0  0  0  0  0  0  0
   -0.3806   -0.8989   -0.4985 H   0  0  0  0  0  0  0  0  0  0  0  0
    3.7368    0.1135    0.0881 H   0  0  0  0  0  0  0  0  0  0  0  0
    4.5248    2.2267   -2.0912 H   0  0  0  0  0  0  0  0  0  0  0  0
    6.1600    4.0125   -2.0675 H   0  0  0  0  0  0  0  0  0  0  0  0
    7.6389    5.5103   -0.7493 H   0  0  0  0  0  0  0  0  0  0  0  0
    8.1312    5.0840    2.0021 H   0  0  0  0  0  0  0  0  0  0  0  0
    6.8874    6.2944    1.8638 H   0  0  0  0  0  0  0  0  0  0  0  0
   11.6441    5.1806    1.0734 H   0  0  0  0  0  0  0  0  0  0  0  0
   10.1100    4.5916    0.3907 H   0  0  0  0  0  0  0  0  0  0  0  0
   10.2718    4.8232    2.1330 H   0  0  0  0  0  0  0  0  0  0  0  0
   12.0651    7.4297    0.7467 H   0  0  0  0  0  0  0  0  0  0  0  0
   12.6350    9.6921    0.3985 H   0  0  0  0  0  0  0  0  0  0  0  0
   11.5736   10.8575    1.2241 H   0  0  0  0  0  0  0  0  0  0  0  0
   11.4370   10.6174   -0.5192 H   0  0  0  0  0  0  0  0  0  0  0  0
    8.8591   10.2886    0.6135 H   0  0  0  0  0  0  0  0  0  0  0  0
    6.7314    9.6775    0.8582 H   0  0  0  0  0  0  0  0  0  0  0  0
    6.4366    8.3130    1.9616 H   0  0  0  0  0  0  0  0  0  0  0  0
    6.3124    8.0818    0.2163 H   0  0  0  0  0  0  0  0  0  0  0  0
    6.0706    4.0324    2.2292 H   0  0  0  0  0  0  0  0  0  0  0  0
    3.6121    1.3365    2.4944 H   0  0  0  0  0  0  0  0  0  0  0  0
    4.5903    2.4250    3.3836 H   0  0  0  0  0  0  0  0  0  0  0  0
  1  2  1  0
  2  3  1  0
  3  4  1  0
  4  5  2  0
  4  6  1  0
  6  7  1  0
  7  8  2  0
  8  9  1  0
  9 10  2  0
 10 11  1  0
 11 12  1  0
 12 13  1  0
 13 14  2  0
 14 15  1  0
 14 16  1  0
 16 17  2  0
 17 18  1  0
 17 19  1  0
 19 20  2  0
 20 21  1  0
 10 22  1  0
 22 23  2  0
 23 24  1  0
 23  7  1  0
 20 13  1  0
  1 25  1  0
  1 26  1  0
  1 27  1  0
  2 28  1  0
  2 29  1  0
  6 30  1  0
  8 31  1  0
  9 32  1  0
 11 33  1  0
 12 34  1  0
 12 35  1  0
 15 36  1  0
 15 37  1  0
 15 38  1  0
 16 39  1  0
 18 40  1  0
 18 41  1  0
 18 42  1  0
 19 43  1  0
 21 44  1  0
 21 45  1  0
 21 46  1  0
 22 47  1  0
 24 48  1  0
 24 49  1  0
M  END
>  <_MoleculeID>  (216) 
smi23

>  <_InputIndex>  (216) 
23

>  <_InputSMILES>  (216) 
CCOC(=O)Nc1ccc(NCc2c(C)cc(C)cc2C)cc1N

>  <_InputInChIKey>  (216) 
SCOOTUMXCXKEAD-UHFFFAOYSA-N

>  <_SMILES>  (216) 
CCOC(=O)Nc1ccc(NCc2c(C)cc(C)cc2C)cc1N

>  <_InChIKey>  (216) 
SCOOTUMXCXKEAD-UHFFFAOYSA-N

$$$$
smi23_conf5
     RDKit          3D

 49 50  0  0  0  0  0  0  0  0999 V2000
   -0.4669    0.0000    1.4446 C   0  0  0  0  0  0  0  0  0  0  0  0
    0.0000    0.0000    0.0000 C   0  0  0  0  0  0  0  0  0  0  0  0
    1.4180    0.0000   -0.0000 O   0  0  0  0  0  0  0  0  0  0  0  0
    2.0164    1.2303   -0.0000 C   0  0  0  0  0  0  0  0  0  0  0  0
    1.4017    2.2914   -0.0000 O   0  0  0  0  0  0  0  0  0  0  0  0
    3.3892    1.0656    0.0255 N   0  0  0  0  0  0  0  0  0  0  0  0
    4.3307    2.0945    0.0561 C   0  0  0  0  0  0  0  0  0  0  0  0
    4.7723    2.6182    1.2738 C   0  0  0  0  0  0  0  0  0  0  0  0
    5.7195    3.6521    1.3129 C   0  0  0  0  0  0  0  0  0  0  0  0
    6.2610    4.2060    0.1425 C   0  0  0  0  0  0  0  0  0  0  0  0
    7.2048    5.2368    0.1734 N   0  0  0  0  0  0  0  0  0  0  0  0
    7.7317    5.8495    1.3726 C   0  0  0  0  0  0  0  0  0  0  0  0
    8.7275    6.9288    1.1456 C   0  0  0  0  0  0  0  0  0  0  0  0
    8.3204    8.2556    1.0114 C   0  0  0  0  0  0  0  0  0  0  0  0
    6.8766    8.5982    1.0913 C   0  0  0  0  0  0  0  0  0  0  0  0
    9.2815    9.2524    0.7945 C   0  0  0  0  0  0  0  0  0  0  0  0
   10.6629    8.9919    0.7101 C   0  0  0  0  0  0  0  0  0  0  0  0
   11.6589   10.0711    0.4826 C   0  0  0  0  0  0  0  0  0  0  0  0
   11.0381    7.6486    0.8668 C   0  0  0  0  0  0  0  0  0  0  0  0
   10.0921    6.6355    1.0818 C   0  0  0  0  0  0  0  0  0  0  0  0
   10.5657    5.2366    1.2464 C   0  0  0  0  0  0  0  0  0  0  0  0
    5.7824    3.6638   -1.0659 C   0  0  0  0  0  0  0  0  0  0  0  0
    4.8348    2.6330   -1.1272 C   0  0  0  0  0  0  0  0  0  0  0  0
    4.3978    2.1373   -2.3592 N   0  0  0  0  0  0  0  0  0  0  0  0
   -1.5591    0.0008    1.5015 H   0  0  0  0  0  0  0  0  0  0  0  0
   -0.0845    0.8795    1.9734 H   0  0  0  0  0  0  0  0  0  0  0  0
   -0.0857   -0.8803    1.9730 H   0  0  0  0  0  0  0  0  0  0  0  0
   -0.3807    0.8989   -0.4984 H   0  0  0  0  0  0  0  0  0  0  0  0
   -0.3806   -0.8989   -0.4985 H   0  0  0  0  0  0  0  0  0  0  0  0
    3.7368    0.1135    0.0881 H   0  0  0  0  0  0  0  0  0  0  0  0
    4.3815    2.2298    2.2114 H   0  0  0  0  0  0  0  0  0  0  0  0
    6.0145    4.0157    2.2941 H   0  0  0  0  0  0  0  0  0  0  0  0
    7.6371    5.5107   -0.7017 H   0  0  0  0  0  0  0  0  0  0  0  0
    8.1287    5.0836    2.0497 H   0  0  0  0  0  0  0  0  0  0  0  0
    6.8857    6.2947    1.9114 H   0  0  0  0  0  0  0  0  0  0  0  0
    6.7312    9.6746    0.9603 H   0  0  0  0  0  0  0  0  0  0  0  0
    6.4551    8.3000    2.0560 H   0  0  0  0  0  0  0  0  0  0  0  0
    6.3068    8.0835    0.3106 H   0  0  0  0  0  0  0  0  0  0  0  0
    8.9442   10.2824    0.6856 H   0  0  0  0  0  0  0  0  0  0  0  0
   11.1593   11.0407    0.3981 H   0  0  0  0  0  0  0  0  0  0  0  0
   12.2334    9.8891   -0.4306 H   0  0  0  0  0  0  0  0  0  0  0  0
   12.3709   10.1298    1.3125 H   0  0  0  0  0  0  0  0  0  0  0  0
   12.0831    7.3505    0.8337 H   0  0  0  0  0  0  0  0  0  0  0  0
   11.6562    5.1910    1.1719 H   0  0  0  0  0  0  0  0  0  0  0  0
   10.1321    4.5829    0.4836 H   0  0  0  0  0  0  0  0  0  0  0  0
   10.2775    4.8367    2.2242 H   0  0  0  0  0  0  0  0  0  0  0  0
    6.1698    4.0677   -2.0005 H   0  0  0  0  0  0  0  0  0  0  0  0
    3.7124    1.3913   -2.4257 H   0  0  0  0  0  0  0  0  0  0  0  0
    4.7353    2.4898   -3.2497 H   0  0  0  0  0  0  0  0  0  0  0  0
  1  2  1  0
  2  3  1  0
  3  4  1  0
  4  5  2  0
  4  6  1  0
  6  7  1  0
  7  8  2  0
  8  9  1  0
  9 10  2  0
 10 11  1  0
 11 12  1  0
 12 13  1  0
 13 14  2  0
 14 15  1  0
 14 16  1  0
 16 17  2  0
 17 18  1  0
 17 19  1  0
 19 20  2  0
 20 21  1  0
 10 22  1  0
 22 23  2  0
 23 24  1  0
 23  7  1  0
 20 13  1  0
  1 25  1  0
  1 26  1  0
  1 27  1  0
  2 28  1  0
  2 29  1  0
  6 30  1  0
  8 31  1  0
  9 32  1  0
 11 33  1  0
 12 34  1  0
 12 35  1  0
 15 36  1  0
 15 37  1  0
 15 38  1  0
 16 39  1  0
 18 40  1  0
 18 41  1  0
 18 42  1  0
 19 43  1  0
 21 44  1  0
 21 45  1  0
 21 46  1  0
 22 47  1  0
 24 48  1  0
 24 49  1  0
M  END
>  <_MoleculeID>  (217) 
smi23

>  <_InputIndex>  (217) 
23

>  <_InputSMILES>  (217) 
CCOC(=O)Nc1ccc(NCc2c(C)cc(C)cc2C)cc1N

>  <_InputInChIKey>  (217) 
SCOOTUMXCXKEAD-UHFFFAOYSA-N

>  <_SMILES>  (217) 
CCOC(=O)Nc1ccc(NCc2c(C)cc(C)cc2C)cc1N

>  <_InChIKey>  (217) 
SCOOTUMXCXKEAD-UHFFFAOYSA-N

$$$$
smi23_conf6
     RDKit          3D

 49 50  0  0  0  0  0  0  0  0999 V2000
   -0.4669    0.0000    1.4446 C   0  0  0  0  0  0  0  0  0  0  0  0
    0.0000    0.0000    0.0000 C   0  0  0  0  0  0  0  0  0  0  0  0
    1.4180    0.0000    0.0000 O   0  0  0  0  0  0  0  0  0  0  0  0
    2.0164   -0.0000   -1.2303 C   0  0  0  0  0  0  0  0  0  0  0  0
    1.4017   -0.0000   -2.2914 O   0  0  0  0  0  0  0  0  0  0  0  0
    3.3892    0.0255   -1.0656 N   0  0  0  0  0  0  0  0  0  0  0  0
    4.0611    0.0247    0.1570 C   0  0  0  0  0  0  0  0  0  0  0  0
    4.3967    1.2270    0.7846 C   0  0  0  0  0  0  0  0  0  0  0  0
    5.0713    1.2346    2.0145 C   0  0  0  0  0  0  0  0  0  0  0  0
    5.4401    0.0468    2.6649 C   0  0  0  0  0  0  0  0  0  0  0  0
    6.1130    0.0463    3.8903 N   0  0  0  0  0  0  0  0  0  0  0  0
    6.5057    1.2272    4.6266 C   0  0  0  0  0  0  0  0  0  0  0  0
    7.2119    0.9672    5.9080 C   0  0  0  0  0  0  0  0  0  0  0  0
    6.4988    0.8323    7.0986 C   0  0  0  0  0  0  0  0  0  0  0  0
    5.0177    0.9532    7.0917 C   0  0  0  0  0  0  0  0  0  0  0  0
    7.1917    0.5908    8.2928 C   0  0  0  0  0  0  0  0  0  0  0  0
    8.5925    0.4653    8.3643 C   0  0  0  0  0  0  0  0  0  0  0  0
    9.2989    0.2058    9.6457 C   0  0  0  0  0  0  0  0  0  0  0  0
    9.2762    0.5894    7.1450 C   0  0  0  0  0  0  0  0  0  0  0  0
    8.6023    0.8339    5.9393 C   0  0  0  0  0  0  0  0  0  0  0  0
    9.3936    0.9455    4.6865 C   0  0  0  0  0  0  0  0  0  0  0  0
    5.0988   -1.1449    1.9966 C   0  0  0  0  0  0  0  0  0  0  0  0
    4.4276   -1.1746    0.7666 C   0  0  0  0  0  0  0  0  0  0  0  0
    4.1172   -2.3912    0.1518 N   0  0  0  0  0  0  0  0  0  0  0  0
   -1.5591    0.0008    1.5015 H   0  0  0  0  0  0  0  0  0  0  0  0
   -0.0845    0.8795    1.9734 H   0  0  0  0  0  0  0  0  0  0  0  0
   -0.0857   -0.8803    1.9730 H   0  0  0  0  0  0  0  0  0  0  0  0
   -0.3807    0.8989   -0.4984 H   0  0  0  0  0  0  0  0  0  0  0  0
   -0.3806   -0.8989   -0.4985 H   0  0  0  0  0  0  0  0  0  0  0  0
    3.9542   -0.0203   -1.9082 H   0  0  0  0  0  0  0  0  0  0  0  0
    4.1398    2.1771    0.3220 H   0  0  0  0  0  0  0  0  0  0  0  0
    5.3059    2.2054    2.4439 H   0  0  0  0  0  0  0  0  0  0  0  0
    6.2472   -0.8433    4.3575 H   0  0  0  0  0  0  0  0  0  0  0  0
    5.6426    1.8863    4.7794 H   0  0  0  0  0  0  0  0  0  0  0  0
    7.1905    1.7988    3.9874 H   0  0  0  0  0  0  0  0  0  0  0  0
    4.6192    0.8284    8.1029 H   0  0  0  0  0  0  0  0  0  0  0  0
    4.5653    0.2008    6.4387 H   0  0  0  0  0  0  0  0  0  0  0  0
    4.7055    1.9367    6.7253 H   0  0  0  0  0  0  0  0  0  0  0  0
    6.6184    0.4949    9.2140 H   0  0  0  0  0  0  0  0  0  0  0  0
    8.5826    0.1343   10.4695 H   0  0  0  0  0  0  0  0  0  0  0  0
   10.0144    1.0031    9.8682 H   0  0  0  0  0  0  0  0  0  0  0  0
    9.8581   -0.7347    9.6025 H   0  0  0  0  0  0  0  0  0  0  0  0
   10.3579    0.4915    7.0959 H   0  0  0  0  0  0  0  0  0  0  0  0
   10.4594    0.8126    4.8943 H   0  0  0  0  0  0  0  0  0  0  0  0
    9.2451    1.9210    4.2137 H   0  0  0  0  0  0  0  0  0  0  0  0
    9.0933    0.1806    3.9627 H   0  0  0  0  0  0  0  0  0  0  0  0
    5.3713   -2.0918    2.4610 H   0  0  0  0  0  0  0  0  0  0  0  0
    3.6317   -2.4349   -0.7387 H   0  0  0  0  0  0  0  0  0  0  0  0
    4.3565   -3.2924    0.5541 H   0  0  0  0  0  0  0  0  0  0  0  0
  1  2  1  0
  2  3  1  0
  3  4  1  0
  4  5  2  0
  4  6  1  0
  6  7  1  0
  7  8  2  0
  8  9  1  0
  9 10  2  0
 10 11  1  0
 11 12  1  0
 12 13  1  0
 13 14  2  0
 14 15  1  0
 14 16  1  0
 16 17  2  0
 17 18  1  0
 17 19  1  0
 19 20  2  0
 20 21  1  0
 10 22  1  0
 22 23  2  0
 23 24  1  0
 23  7  1  0
 20 13  1  0
  1 25  1  0
  1 26  1  0
  1 27  1  0
  2 28  1  0
  2 29  1  0
  6 30  1  0
  8 31  1  0
  9 32  1  0
 11 33  1  0
 12 34  1  0
 12 35  1  0
 15 36  1  0
 15 37  1  0
 15 38  1  0
 16 39  1  0
 18 40  1  0
 18 41  1  0
 18 42  1  0
 19 43  1  0
 21 44  1  0
 21 45  1  0
 21 46  1  0
 22 47  1  0
 24 48  1  0
 24 49  1  0
M  END
>  <_MoleculeID>  (218) 
smi23

>  <_InputIndex>  (218) 
23

>  <_InputSMILES>  (218) 
CCOC(=O)Nc1ccc(NCc2c(C)cc(C)cc2C)cc1N

>  <_InputInChIKey>  (218) 
SCOOTUMXCXKEAD-UHFFFAOYSA-N

>  <_SMILES>  (218) 
CCOC(=O)Nc1ccc(NCc2c(C)cc(C)cc2C)cc1N

>  <_InChIKey>  (218) 
SCOOTUMXCXKEAD-UHFFFAOYSA-N

$$$$
smi23_conf7
     RDKit          3D

 49 50  0  0  0  0  0  0  0  0999 V2000
   -0.4669    0.0000    1.4446 C   0  0  0  0  0  0  0  0  0  0  0  0
    0.0000    0.0000    0.0000 C   0  0  0  0  0  0  0  0  0  0  0  0
    1.4180    0.0000    0.0000 O   0  0  0  0  0  0  0  0  0  0  0  0
    2.0164   -0.0000   -1.2303 C   0  0  0  0  0  0  0  0  0  0  0  0
    1.4017   -0.0000   -2.2914 O   0  0  0  0  0  0  0  0  0  0  0  0
    3.3892    0.0255   -1.0656 N   0  0  0  0  0  0  0  0  0  0  0  0
    4.0611    0.0247    0.1570 C   0  0  0  0  0  0  0  0  0  0  0  0
    4.3967    1.2270    0.7846 C   0  0  0  0  0  0  0  0  0  0  0  0
    5.0713    1.2346    2.0145 C   0  0  0  0  0  0  0  0  0  0  0  0
    5.4401    0.0468    2.6649 C   0  0  0  0  0  0  0  0  0  0  0  0
    6.1130    0.0463    3.8903 N   0  0  0  0  0  0  0  0  0  0  0  0
    6.5231   -1.1353    4.6160 C   0  0  0  0  0  0  0  0  0  0  0  0
    7.2255   -0.8764    5.8997 C   0  0  0  0  0  0  0  0  0  0  0  0
    6.5105   -0.7628    7.0914 C   0  0  0  0  0  0  0  0  0  0  0  0
    5.0307   -0.8972    7.0821 C   0  0  0  0  0  0  0  0  0  0  0  0
    7.1992   -0.5150    8.2867 C   0  0  0  0  0  0  0  0  0  0  0  0
    8.5989   -0.3788    8.3609 C   0  0  0  0  0  0  0  0  0  0  0  0
    9.3014   -0.1195    9.6444 C   0  0  0  0  0  0  0  0  0  0  0  0
    9.2875   -0.5160    7.1457 C   0  0  0  0  0  0  0  0  0  0  0  0
    8.6173   -0.7613    5.9381 C   0  0  0  0  0  0  0  0  0  0  0  0
    9.4150   -0.9025    4.6923 C   0  0  0  0  0  0  0  0  0  0  0  0
    5.0988   -1.1449    1.9966 C   0  0  0  0  0  0  0  0  0  0  0  0
    4.4276   -1.1746    0.7666 C   0  0  0  0  0  0  0  0  0  0  0  0
    4.1172   -2.3912    0.1518 N   0  0  0  0  0  0  0  0  0  0  0  0
   -1.5591    0.0008    1.5015 H   0  0  0  0  0  0  0  0  0  0  0  0
   -0.0845    0.8795    1.9734 H   0  0  0  0  0  0  0  0  0  0  0  0
   -0.0857   -0.8803    1.9730 H   0  0  0  0  0  0  0  0  0  0  0  0
   -0.3807    0.8989   -0.4984 H   0  0  0  0  0  0  0  0  0  0  0  0
   -0.3806   -0.8989   -0.4985 H   0  0  0  0  0  0  0  0  0  0  0  0
    3.9542   -0.0203   -1.9082 H   0  0  0  0  0  0  0  0  0  0  0  0
    4.1398    2.1771    0.3220 H   0  0  0  0  0  0  0  0  0  0  0  0
    5.3059    2.2054    2.4439 H   0  0  0  0  0  0  0  0  0  0  0  0
    6.4356    0.9355    4.2549 H   0  0  0  0  0  0  0  0  0  0  0  0
    7.1149   -1.7941    3.9692 H   0  0  0  0  0  0  0  0  0  0  0  0
    5.6160   -1.7067    4.8504 H   0  0  0  0  0  0  0  0  0  0  0  0
    4.6294   -0.7760    8.0927 H   0  0  0  0  0  0  0  0  0  0  0  0
    4.7275   -1.8754    6.6969 H   0  0  0  0  0  0  0  0  0  0  0  0
    4.5710   -0.1358    6.4433 H   0  0  0  0  0  0  0  0  0  0  0  0
    6.6234   -0.4228    9.2068 H   0  0  0  0  0  0  0  0  0  0  0  0
    8.5834   -0.0574   10.4675 H   0  0  0  0  0  0  0  0  0  0  0  0
    9.8688    0.8150    9.5997 H   0  0  0  0  0  0  0  0  0  0  0  0
   10.0092   -0.9228    9.8743 H   0  0  0  0  0  0  0  0  0  0  0  0
   10.3714   -0.4433    7.1039 H   0  0  0  0  0  0  0  0  0  0  0  0
   10.4817   -0.7879    4.9062 H   0  0  0  0  0  0  0  0  0  0  0  0
    9.1212   -0.1535    3.9508 H   0  0  0  0  0  0  0  0  0  0  0  0
    9.2659   -1.8886    4.2400 H   0  0  0  0  0  0  0  0  0  0  0  0
    5.3713   -2.0918    2.4610 H   0  0  0  0  0  0  0  0  0  0  0  0
    3.6317   -2.4349   -0.7387 H   0  0  0  0  0  0  0  0  0  0  0  0
    4.3565   -3.2924    0.5541 H   0  0  0  0  0  0  0  0  0  0  0  0
  1  2  1  0
  2  3  1  0
  3  4  1  0
  4  5  2  0
  4  6  1  0
  6  7  1  0
  7  8  2  0
  8  9  1  0
  9 10  2  0
 10 11  1  0
 11 12  1  0
 12 13  1  0
 13 14  2  0
 14 15  1  0
 14 16  1  0
 16 17  2  0
 17 18  1  0
 17 19  1  0
 19 20  2  0
 20 21  1  0
 10 22  1  0
 22 23  2  0
 23 24  1  0
 23  7  1  0
 20 13  1  0
  1 25  1  0
  1 26  1  0
  1 27  1  0
  2 28  1  0
  2 29  1  0
  6 30  1  0
  8 31  1  0
  9 32  1  0
 11 33  1  0
 12 34  1  0
 12 35  1  0
 15 36  1  0
 15 37  1  0
 15 38  1  0
 16 39  1  0
 18 40  1  0
 18 41  1  0
 18 42  1  0
 19 43  1  0
 21 44  1  0
 21 45  1  0
 21 46  1  0
 22 47  1  0
 24 48  1  0
 24 49  1  0
M  END
>  <_MoleculeID>  (219) 
smi23

>  <_InputIndex>  (219) 
23

>  <_InputSMILES>  (219) 
CCOC(=O)Nc1ccc(NCc2c(C)cc(C)cc2C)cc1N

>  <_InputInChIKey>  (219) 
SCOOTUMXCXKEAD-UHFFFAOYSA-N

>  <_SMILES>  (219) 
CCOC(=O)Nc1ccc(NCc2c(C)cc(C)cc2C)cc1N

>  <_InChIKey>  (219) 
SCOOTUMXCXKEAD-UHFFFAOYSA-N

$$$$
smi23_conf8
     RDKit          3D

 49 50  0  0  0  0  0  0  0  0999 V2000
   -0.4669    0.0000    1.4446 C   0  0  0  0  0  0  0  0  0  0  0  0
    0.0000    0.0000    0.0000 C   0  0  0  0  0  0  0  0  0  0  0  0
    1.4180   -0.0000    0.0000 O   0  0  0  0  0  0  0  0  0  0  0  0
    2.0164    1.2303   -0.0000 C   0  0  0  0  0  0  0  0  0  0  0  0
    1.4017    2.2914   -0.0000 O   0  0  0  0  0  0  0  0  0  0  0  0
    3.3892    1.0656    0.0255 N   0  0  0  0  0  0  0  0  0  0  0  0
    4.0611   -0.1570    0.0247 C   0  0  0  0  0  0  0  0  0  0  0  0
    4.4104   -0.7757   -1.1783 C   0  0  0  0  0  0  0  0  0  0  0  0
    5.0869   -2.0044   -1.1873 C   0  0  0  0  0  0  0  0  0  0  0  0
    5.4388   -2.6655   -0.0004 C   0  0  0  0  0  0  0  0  0  0  0  0
    6.1125   -3.8905   -0.0013 N   0  0  0  0  0  0  0  0  0  0  0  0
    6.5230   -4.6157   -1.1830 C   0  0  0  0  0  0  0  0  0  0  0  0
    7.2262   -5.8990   -0.9245 C   0  0  0  0  0  0  0  0  0  0  0  0
    6.5121   -7.0912   -0.8111 C   0  0  0  0  0  0  0  0  0  0  0  0
    5.0322   -7.0829   -0.9453 C   0  0  0  0  0  0  0  0  0  0  0  0
    7.2016   -8.2861   -0.5637 C   0  0  0  0  0  0  0  0  0  0  0  0
    8.6014   -8.3594   -0.4277 C   0  0  0  0  0  0  0  0  0  0  0  0
    9.3048   -9.6425   -0.1687 C   0  0  0  0  0  0  0  0  0  0  0  0
    9.2892   -7.1437   -0.5647 C   0  0  0  0  0  0  0  0  0  0  0  0
    8.6182   -5.9365   -0.8096 C   0  0  0  0  0  0  0  0  0  0  0  0
    9.4150   -4.6901   -0.9507 C   0  0  0  0  0  0  0  0  0  0  0  0
    5.0583   -2.0203    1.1922 C   0  0  0  0  0  0  0  0  0  0  0  0
    4.3798   -0.7943    1.2233 C   0  0  0  0  0  0  0  0  0  0  0  0
    4.0278   -0.2038    2.4406 N   0  0  0  0  0  0  0  0  0  0  0  0
   -1.5591    0.0008    1.5015 H   0  0  0  0  0  0  0  0  0  0  0  0
   -0.0845    0.8795    1.9734 H   0  0  0  0  0  0  0  0  0  0  0  0
   -0.0857   -0.8803    1.9730 H   0  0  0  0  0  0  0  0  0  0  0  0
   -0.3807    0.8989   -0.4984 H   0  0  0  0  0  0  0  0  0  0  0  0
   -0.3806   -0.8989   -0.4985 H   0  0  0  0  0  0  0  0  0  0  0  0
    3.9542    1.9082   -0.0203 H   0  0  0  0  0  0  0  0  0  0  0  0
    4.1571   -0.3099   -2.1278 H   0  0  0  0  0  0  0  0  0  0  0  0
    5.3232   -2.4318   -2.1586 H   0  0  0  0  0  0  0  0  0  0  0  0
    6.4355   -4.2551    0.8879 H   0  0  0  0  0  0  0  0  0  0  0  0
    7.1143   -3.9684   -1.8418 H   0  0  0  0  0  0  0  0  0  0  0  0
    5.6160   -4.8505   -1.7544 H   0  0  0  0  0  0  0  0  0  0  0  0
    4.6316   -8.0937   -0.8243 H   0  0  0  0  0  0  0  0  0  0  0  0
    4.7287   -6.6976   -1.9234 H   0  0  0  0  0  0  0  0  0  0  0  0
    4.5723   -6.4445   -0.1837 H   0  0  0  0  0  0  0  0  0  0  0  0
    6.6265   -9.2066   -0.4716 H   0  0  0  0  0  0  0  0  0  0  0  0
    8.5873  -10.4661   -0.1067 H   0  0  0  0  0  0  0  0  0  0  0  0
    9.8723   -9.5976    0.7657 H   0  0  0  0  0  0  0  0  0  0  0  0
   10.0126   -9.8717   -0.9722 H   0  0  0  0  0  0  0  0  0  0  0  0
   10.3731   -7.1011   -0.4920 H   0  0  0  0  0  0  0  0  0  0  0  0
   10.4818   -4.9034   -0.8362 H   0  0  0  0  0  0  0  0  0  0  0  0
    9.1208   -3.9490   -0.2014 H   0  0  0  0  0  0  0  0  0  0  0  0
    9.2655   -4.2377   -1.9366 H   0  0  0  0  0  0  0  0  0  0  0  0
    5.3047   -2.5002    2.1385 H   0  0  0  0  0  0  0  0  0  0  0  0
    3.5364    0.6834    2.4854 H   0  0  0  0  0  0  0  0  0  0  0  0
    4.2396   -0.6223    3.3414 H   0  0  0  0  0  0  0  0  0  0  0  0
  1  2  1  0
  2  3  1  0
  3  4  1  0
  4  5  2  0
  4  6  1  0
  6  7  1  0
  7  8  2  0
  8  9  1  0
  9 10  2  0
 10 11  1  0
 11 12  1  0
 12 13  1  0
 13 14  2  0
 14 15  1  0
 14 16  1  0
 16 17  2  0
 17 18  1  0
 17 19  1  0
 19 20  2  0
 20 21  1  0
 10 22  1  0
 22 23  2  0
 23 24  1  0
 23  7  1  0
 20 13  1  0
  1 25  1  0
  1 26  1  0
  1 27  1  0
  2 28  1  0
  2 29  1  0
  6 30  1  0
  8 31  1  0
  9 32  1  0
 11 33  1  0
 12 34  1  0
 12 35  1  0
 15 36  1  0
 15 37  1  0
 15 38  1  0
 16 39  1  0
 18 40  1  0
 18 41  1  0
 18 42  1  0
 19 43  1  0
 21 44  1  0
 21 45  1  0
 21 46  1  0
 22 47  1  0
 24 48  1  0
 24 49  1  0
M  END
>  <_MoleculeID>  (220) 
smi23

>  <_InputIndex>  (220) 
23

>  <_InputSMILES>  (220) 
CCOC(=O)Nc1ccc(NCc2c(C)cc(C)cc2C)cc1N

>  <_InputInChIKey>  (220) 
SCOOTUMXCXKEAD-UHFFFAOYSA-N

>  <_SMILES>  (220) 
CCOC(=O)Nc1ccc(NCc2c(C)cc(C)cc2C)cc1N

>  <_InChIKey>  (220) 
SCOOTUMXCXKEAD-UHFFFAOYSA-N

$$$$
smi23_conf9
     RDKit          3D

 49 50  0  0  0  0  0  0  0  0999 V2000
   -0.4669    0.0000    1.4446 C   0  0  0  0  0  0  0  0  0  0  0  0
    0.0000    0.0000    0.0000 C   0  0  0  0  0  0  0  0  0  0  0  0
    1.4180    0.0000    0.0000 O   0  0  0  0  0  0  0  0  0  0  0  0
    2.0164   -1.2303    0.0000 C   0  0  0  0  0  0  0  0  0  0  0  0
    1.4017   -2.2914   -0.0000 O   0  0  0  0  0  0  0  0  0  0  0  0
    3.3892   -1.0656   -0.0255 N   0  0  0  0  0  0  0  0  0  0  0  0
    4.0611    0.1570   -0.0247 C   0  0  0  0  0  0  0  0  0  0  0  0
    4.4104    0.7757    1.1783 C   0  0  0  0  0  0  0  0  0  0  0  0
    5.0869    2.0044    1.1873 C   0  0  0  0  0  0  0  0  0  0  0  0
    5.4388    2.6655    0.0004 C   0  0  0  0  0  0  0  0  0  0  0  0
    6.1125    3.8905    0.0013 N   0  0  0  0  0  0  0  0  0  0  0  0
    6.5230    4.6157    1.1830 C   0  0  0  0  0  0  0  0  0  0  0  0
    7.2262    5.8990    0.9245 C   0  0  0  0  0  0  0  0  0  0  0  0
    6.5121    7.0912    0.8111 C   0  0  0  0  0  0  0  0  0  0  0  0
    5.0322    7.0829    0.9453 C   0  0  0  0  0  0  0  0  0  0  0  0
    7.2016    8.2861    0.5637 C   0  0  0  0  0  0  0  0  0  0  0  0
    8.6014    8.3594    0.4277 C   0  0  0  0  0  0  0  0  0  0  0  0
    9.3048    9.6425    0.1687 C   0  0  0  0  0  0  0  0  0  0  0  0
    9.2892    7.1437    0.5647 C   0  0  0  0  0  0  0  0  0  0  0  0
    8.6182    5.9365    0.8096 C   0  0  0  0  0  0  0  0  0  0  0  0
    9.4150    4.6901    0.9507 C   0  0  0  0  0  0  0  0  0  0  0  0
    5.0583    2.0203   -1.1922 C   0  0  0  0  0  0  0  0  0  0  0  0
    4.3798    0.7943   -1.2233 C   0  0  0  0  0  0  0  0  0  0  0  0
    4.0278    0.2038   -2.4406 N   0  0  0  0  0  0  0  0  0  0  0  0
   -1.5591    0.0008    1.5015 H   0  0  0  0  0  0  0  0  0  0  0  0
   -0.0845    0.8795    1.9734 H   0  0  0  0  0  0  0  0  0  0  0  0
   -0.0857   -0.8803    1.9730 H   0  0  0  0  0  0  0  0  0  0  0  0
   -0.3807    0.8989   -0.4984 H   0  0  0  0  0  0  0  0  0  0  0  0
   -0.3806   -0.8989   -0.4985 H   0  0  0  0  0  0  0  0  0  0  0  0
    3.9542   -1.9082    0.0203 H   0  0  0  0  0  0  0  0  0  0  0  0
    4.1571    0.3099    2.1278 H   0  0  0  0  0  0  0  0  0  0  0  0
    5.3232    2.4318    2.1586 H   0  0  0  0  0  0  0  0  0  0  0  0
    6.4355    4.2551   -0.8879 H   0  0  0  0  0  0  0  0  0  0  0  0
    7.1143    3.9684    1.8418 H   0  0  0  0  0  0  0  0  0  0  0  0
    5.6160    4.8505    1.7544 H   0  0  0  0  0  0  0  0  0  0  0  0
    4.6316    8.0937    0.8243 H   0  0  0  0  0  0  0  0  0  0  0  0
    4.7287    6.6976    1.9234 H   0  0  0  0  0  0  0  0  0  0  0  0
    4.5723    6.4445    0.1837 H   0  0  0  0  0  0  0  0  0  0  0  0
    6.6265    9.2066    0.4716 H   0  0  0  0  0  0  0  0  0  0  0  0
    8.5873   10.4661    0.1067 H   0  0  0  0  0  0  0  0  0  0  0  0
    9.8723    9.5976   -0.7657 H   0  0  0  0  0  0  0  0  0  0  0  0
   10.0126    9.8717    0.9722 H   0  0  0  0  0  0  0  0  0  0  0  0
   10.3731    7.1011    0.4920 H   0  0  0  0  0  0  0  0  0  0  0  0
   10.4818    4.9034    0.8362 H   0  0  0  0  0  0  0  0  0  0  0  0
    9.1208    3.9490    0.2014 H   0  0  0  0  0  0  0  0  0  0  0  0
    9.2655    4.2377    1.9366 H   0  0  0  0  0  0  0  0  0  0  0  0
    5.3047    2.5002   -2.1385 H   0  0  0  0  0  0  0  0  0  0  0  0
    3.5364   -0.6834   -2.4854 H   0  0  0  0  0  0  0  0  0  0  0  0
    4.2396    0.6223   -3.3414 H   0  0  0  0  0  0  0  0  0  0  0  0
  1  2  1  0
  2  3  1  0
  3  4  1  0
  4  5  2  0
  4  6  1  0
  6  7  1  0
  7  8  2  0
  8  9  1  0
  9 10  2  0
 10 11  1  0
 11 12  1  0
 12 13  1  0
 13 14  2  0
 14 15  1  0
 14 16  1  0
 16 17  2  0
 17 18  1  0
 17 19  1  0
 19 20  2  0
 20 21  1  0
 10 22  1  0
 22 23  2  0
 23 24  1  0
 23  7  1  0
 20 13  1  0
  1 25  1  0
  1 26  1  0
  1 27  1  0
  2 28  1  0
  2 29  1  0
  6 30  1  0
  8 31  1  0
  9 32  1  0
 11 33  1  0
 12 34  1  0
 12 35  1  0
 15 36  1  0
 15 37  1  0
 15 38  1  0
 16 39  1  0
 18 40  1  0
 18 41  1  0
 18 42  1  0
 19 43  1  0
 21 44  1  0
 21 45  1  0
 21 46  1  0
 22 47  1  0
 24 48  1  0
 24 49  1  0
M  END
>  <_MoleculeID>  (221) 
smi23

>  <_InputIndex>  (221) 
23

>  <_InputSMILES>  (221) 
CCOC(=O)Nc1ccc(NCc2c(C)cc(C)cc2C)cc1N

>  <_InputInChIKey>  (221) 
SCOOTUMXCXKEAD-UHFFFAOYSA-N

>  <_SMILES>  (221) 
CCOC(=O)Nc1ccc(NCc2c(C)cc(C)cc2C)cc1N

>  <_InChIKey>  (221) 
SCOOTUMXCXKEAD-UHFFFAOYSA-N

$$$$
smi24_conf0
     RDKit          3D

 36 38  0  0  0  0  0  0  0  0999 V2000
    2.9813    3.4113   -1.4927 C   0  0  2  0  0  0  0  0  0  0  0  0
    4.0212    3.5417   -2.6108 C   0  0  0  0  0  0  0  0  0  0  0  0
    4.8997    2.6071   -1.7582 C   0  0  0  0  0  0  0  0  0  0  0  0
    5.9470    2.0211   -1.9139 O   0  0  0  0  0  0  0  0  0  0  0  0
    3.9553    2.5714   -0.7745 N   0  0  0  0  0  0  0  0  0  0  0  0
    3.5626    1.4008    0.0000 C   0  0  1  0  0  0  0  0  0  0  0  0
    4.2430    1.4198    1.3277 C   0  0  0  0  0  0  0  0  0  0  0  0
    5.0507    2.5002    1.4884 O   0  0  0  0  0  0  0  0  0  0  0  0
    4.0864    0.5496    2.1724 O   0  0  0  0  0  0  0  0  0  0  0  0
    2.0130    1.3969   -0.0000 C   0  0  2  0  0  0  0  0  0  0  0  0
    1.3899    2.2144    1.1446 C   0  0  0  0  0  0  0  0  0  0  0  0
    1.4450   -0.0000    0.0000 C   0  0  0  0  0  0  0  0  0  0  0  0
    0.0000    0.0000    0.0000 N   0  0  0  0  0  0  0  0  0  0  0  0
   -0.8598   -0.0000    1.0922 C   0  0  0  0  0  0  0  0  0  0  0  0
   -2.1231    0.0233    0.5270 C   0  0  0  0  0  0  0  0  0  0  0  0
   -1.9259   -0.0101   -0.8343 N   0  0  0  0  0  4  0  0  0  0  0  0
   -2.9167   -0.0169   -1.8806 C   0  0  0  0  0  0  0  0  0  0  0  0
   -0.6596   -0.0208   -1.1881 N   0  0  0  0  0  0  0  0  0  0  0  0
    1.6428    2.2350   -1.6064 S   0  0  0  0  0  6  0  0  0  0  0  0
    0.3729    2.9274   -1.5077 O   0  0  0  0  0  0  0  0  0  0  0  0
    1.8886    1.2991   -2.6879 O   0  0  0  0  0  0  0  0  0  0  0  0
    2.7311    4.3257   -0.9476 H   0  0  0  0  0  0  0  0  0  0  0  0
    3.7413    3.1301   -3.5832 H   0  0  0  0  0  0  0  0  0  0  0  0
    4.4420    4.5429   -2.7372 H   0  0  0  0  0  0  0  0  0  0  0  0
    3.9363    0.5271   -0.5501 H   0  0  0  0  0  0  0  0  0  0  0  0
    5.0697    3.1156    0.7242 H   0  0  0  0  0  0  0  0  0  0  0  0
    0.3006    2.2727    1.0401 H   0  0  0  0  0  0  0  0  0  0  0  0
    1.7695    3.2413    1.1657 H   0  0  0  0  0  0  0  0  0  0  0  0
    1.5931    1.7584    2.1195 H   0  0  0  0  0  0  0  0  0  0  0  0
    1.7791   -0.5527   -0.8852 H   0  0  0  0  0  0  0  0  0  0  0  0
    1.7835   -0.5539    0.8821 H   0  0  0  0  0  0  0  0  0  0  0  0
   -0.4923    0.0076    2.1075 H   0  0  0  0  0  0  0  0  0  0  0  0
   -3.0919    0.0573    1.0017 H   0  0  0  0  0  0  0  0  0  0  0  0
   -2.4153   -0.0307   -2.8519 H   0  0  0  0  0  0  0  0  0  0  0  0
   -3.5403    0.8766   -1.7920 H   0  0  0  0  0  0  0  0  0  0  0  0
   -3.5475   -0.9054   -1.7897 H   0  0  0  0  0  0  0  0  0  0  0  0
  1  2  1  0
  2  3  1  0
  3  4  2  0
  3  5  1  0
  5  6  1  0
  6  7  1  0
  7  8  1  0
  7  9  2  0
  6 10  1  0
 10 11  1  1
 10 12  1  0
 12 13  1  0
 13 14  1  0
 14 15  2  0
 15 16  1  0
 16 17  1  0
 16 18  2  0
 10 19  1  0
 19 20  2  0
 19 21  2  0
  5  1  1  0
 18 13  1  0
 19  1  1  0
  1 22  1  1
  2 23  1  0
  2 24  1  0
  6 25  1  6
  8 26  1  0
 11 27  1  0
 11 28  1  0
 11 29  1  0
 12 30  1  0
 12 31  1  0
 14 32  1  0
 15 33  1  0
 17 34  1  0
 17 35  1  0
 17 36  1  0
M  CHG  1  16   1
M  END
>  <_MoleculeID>  (222) 
smi24

>  <_InputIndex>  (222) 
24

>  <_InputSMILES>  (222) 
[H][C@@]12CC(=O)N1[C@@H](C(O)=O)[C@](C)(Cn1cc[n+](C)n1)S2(=O)=O

>  <_InputInChIKey>  (222) 
HFZITXBUTWITPT-YWVKMMECSA-O

>  <_SMILES>  (222) 
C[n+]1ccn(C[C@@]2(C)[C@H](C(=O)O)N3C(=O)C[C@H]3S2(=O)=O)n1

>  <_InChIKey>  (222) 
HFZITXBUTWITPT-YWVKMMECSA-O

$$$$
smi24_conf1
     RDKit          3D

 36 38  0  0  0  0  0  0  0  0999 V2000
    3.9558    1.7040    1.9548 C   0  0  2  0  0  0  0  0  0  0  0  0
    4.0049    0.5875    3.0086 C   0  0  0  0  0  0  0  0  0  0  0  0
    2.4899    0.8125    3.1611 C   0  0  0  0  0  0  0  0  0  0  0  0
    1.5825    0.2534    3.7337 O   0  0  0  0  0  0  0  0  0  0  0  0
    2.5289    1.8421    2.2708 N   0  0  0  0  0  0  0  0  0  0  0  0
    1.5457    2.1738    1.2565 C   0  0  1  0  0  0  0  0  0  0  0  0
    1.5165    3.6602    1.1313 C   0  0  0  0  0  0  0  0  0  0  0  0
    0.2985    4.1318    0.7574 O   0  0  0  0  0  0  0  0  0  0  0  0
    2.4906    4.3688    1.3415 O   0  0  0  0  0  0  0  0  0  0  0  0
    2.0130    1.3969   -0.0000 C   0  0  2  0  0  0  0  0  0  0  0  0
    1.6587    2.0635   -1.3345 C   0  0  0  0  0  0  0  0  0  0  0  0
    1.4450    0.0000   -0.0000 C   0  0  0  0  0  0  0  0  0  0  0  0
    0.0000    0.0000    0.0000 N   0  0  0  0  0  0  0  0  0  0  0  0
   -0.8598   -0.0000    1.0922 C   0  0  0  0  0  0  0  0  0  0  0  0
   -2.1231    0.0233    0.5270 C   0  0  0  0  0  0  0  0  0  0  0  0
   -1.9259   -0.0101   -0.8343 N   0  0  0  0  0  4  0  0  0  0  0  0
   -2.9167   -0.0169   -1.8806 C   0  0  0  0  0  0  0  0  0  0  0  0
   -0.6596   -0.0208   -1.1881 N   0  0  0  0  0  0  0  0  0  0  0  0
    3.8511    1.3063    0.2096 S   0  0  0  0  0  6  0  0  0  0  0  0
    4.4547    2.3938   -0.5392 O   0  0  0  0  0  0  0  0  0  0  0  0
    4.2938   -0.0569   -0.0134 O   0  0  0  0  0  0  0  0  0  0  0  0
    4.5340    2.6060    2.1730 H   0  0  0  0  0  0  0  0  0  0  0  0
    4.2738   -0.4092    2.6522 H   0  0  0  0  0  0  0  0  0  0  0  0
    4.5747    0.8268    3.9106 H   0  0  0  0  0  0  0  0  0  0  0  0
    0.5605    1.8265    1.5884 H   0  0  0  0  0  0  0  0  0  0  0  0
   -0.3875    3.4416    0.6306 H   0  0  0  0  0  0  0  0  0  0  0  0
    2.0425    1.4765   -2.1769 H   0  0  0  0  0  0  0  0  0  0  0  0
    2.0882    3.0660   -1.4293 H   0  0  0  0  0  0  0  0  0  0  0  0
    0.5730    2.1511   -1.4522 H   0  0  0  0  0  0  0  0  0  0  0  0
    1.7791   -0.5527   -0.8852 H   0  0  0  0  0  0  0  0  0  0  0  0
    1.7835   -0.5539    0.8821 H   0  0  0  0  0  0  0  0  0  0  0  0
   -0.4923    0.0076    2.1075 H   0  0  0  0  0  0  0  0  0  0  0  0
   -3.0919    0.0573    1.0017 H   0  0  0  0  0  0  0  0  0  0  0  0
   -2.4153   -0.0307   -2.8519 H   0  0  0  0  0  0  0  0  0  0  0  0
   -3.5403    0.8766   -1.7920 H   0  0  0  0  0  0  0  0  0  0  0  0
   -3.5475   -0.9054   -1.7897 H   0  0  0  0  0  0  0  0  0  0  0  0
  1  2  1  0
  2  3  1  0
  3  4  2  0
  3  5  1  0
  5  6  1  0
  6  7  1  0
  7  8  1  0
  7  9  2  0
  6 10  1  0
 10 11  1  6
 10 12  1  0
 12 13  1  0
 13 14  1  0
 14 15  2  0
 15 16  1  0
 16 17  1  0
 16 18  2  0
 10 19  1  0
 19 20  2  0
 19 21  2  0
  5  1  1  0
 18 13  1  0
 19  1  1  0
  1 22  1  6
  2 23  1  0
  2 24  1  0
  6 25  1  1
  8 26  1  0
 11 27  1  0
 11 28  1  0
 11 29  1  0
 12 30  1  0
 12 31  1  0
 14 32  1  0
 15 33  1  0
 17 34  1  0
 17 35  1  0
 17 36  1  0
M  CHG  1  16   1
M  END
>  <_MoleculeID>  (223) 
smi24

>  <_InputIndex>  (223) 
24

>  <_InputSMILES>  (223) 
[H][C@@]12CC(=O)N1[C@@H](C(O)=O)[C@](C)(Cn1cc[n+](C)n1)S2(=O)=O

>  <_InputInChIKey>  (223) 
HFZITXBUTWITPT-YWVKMMECSA-O

>  <_SMILES>  (223) 
C[n+]1ccn(C[C@@]2(C)[C@H](C(=O)O)N3C(=O)C[C@H]3S2(=O)=O)n1

>  <_InChIKey>  (223) 
HFZITXBUTWITPT-YWVKMMECSA-O

$$$$
smi24_conf2
     RDKit          3D

 36 38  0  0  0  0  0  0  0  0999 V2000
    3.0880    3.1374   -1.8723 C   0  0  1  0  0  0  0  0  0  0  0  0
    3.3032    4.5761   -1.3790 C   0  0  0  0  0  0  0  0  0  0  0  0
    4.0266    3.9414   -0.1779 C   0  0  0  0  0  0  0  0  0  0  0  0
    4.4673    4.3359    0.8777 O   0  0  0  0  0  0  0  0  0  0  0  0
    3.8651    2.6973   -0.7072 N   0  0  0  0  0  0  0  0  0  0  0  0
    3.5607    1.4673    0.0000 C   0  0  2  0  0  0  0  0  0  0  0  0
    4.2640    0.3580   -0.7078 C   0  0  0  0  0  0  0  0  0  0  0  0
    4.9697    0.7873   -1.7863 O   0  0  0  0  0  0  0  0  0  0  0  0
    4.2025   -0.8095   -0.3495 O   0  0  0  0  0  0  0  0  0  0  0  0
    2.0130    1.3969   -0.0000 C   0  0  2  0  0  0  0  0  0  0  0  0
    1.4372    2.1557    1.2115 C   0  0  0  0  0  0  0  0  0  0  0  0
    1.4450    0.0000   -0.0000 C   0  0  0  0  0  0  0  0  0  0  0  0
    0.0000    0.0000    0.0000 N   0  0  0  0  0  0  0  0  0  0  0  0
   -0.8598   -0.0000    1.0922 C   0  0  0  0  0  0  0  0  0  0  0  0
   -2.1231    0.0233    0.5270 C   0  0  0  0  0  0  0  0  0  0  0  0
   -1.9259   -0.0101   -0.8343 N   0  0  0  0  0  4  0  0  0  0  0  0
   -2.9167   -0.0169   -1.8806 C   0  0  0  0  0  0  0  0  0  0  0  0
   -0.6596   -0.0208   -1.1881 N   0  0  0  0  0  0  0  0  0  0  0  0
    1.5422    2.2864   -1.5549 S   0  0  0  0  0  6  0  0  0  0  0  0
    0.4994    3.2508   -1.2603 O   0  0  0  0  0  0  0  0  0  0  0  0
    1.3428    1.3043   -2.6052 O   0  0  0  0  0  0  0  0  0  0  0  0
    3.5546    2.8741   -2.8254 H   0  0  0  0  0  0  0  0  0  0  0  0
    3.9554    5.1884   -2.0077 H   0  0  0  0  0  0  0  0  0  0  0  0
    2.4072    5.1407   -1.1118 H   0  0  0  0  0  0  0  0  0  0  0  0
    3.9500    1.5387    1.0222 H   0  0  0  0  0  0  0  0  0  0  0  0
    4.9280    1.7548   -1.9454 H   0  0  0  0  0  0  0  0  0  0  0  0
    0.3414    2.1453    1.1997 H   0  0  0  0  0  0  0  0  0  0  0  0
    1.7481    3.2047    1.2311 H   0  0  0  0  0  0  0  0  0  0  0  0
    1.7622    1.6935    2.1503 H   0  0  0  0  0  0  0  0  0  0  0  0
    1.7791   -0.5527   -0.8852 H   0  0  0  0  0  0  0  0  0  0  0  0
    1.7835   -0.5539    0.8821 H   0  0  0  0  0  0  0  0  0  0  0  0
   -0.4923    0.0076    2.1075 H   0  0  0  0  0  0  0  0  0  0  0  0
   -3.0919    0.0573    1.0017 H   0  0  0  0  0  0  0  0  0  0  0  0
   -2.4153   -0.0307   -2.8519 H   0  0  0  0  0  0  0  0  0  0  0  0
   -3.5403    0.8766   -1.7920 H   0  0  0  0  0  0  0  0  0  0  0  0
   -3.5475   -0.9054   -1.7897 H   0  0  0  0  0  0  0  0  0  0  0  0
  1  2  1  0
  2  3  1  0
  3  4  2  0
  3  5  1  0
  5  6  1  0
  6  7  1  0
  7  8  1  0
  7  9  2  0
  6 10  1  0
 10 11  1  1
 10 12  1  0
 12 13  1  0
 13 14  1  0
 14 15  2  0
 15 16  1  0
 16 17  1  0
 16 18  2  0
 10 19  1  0
 19 20  2  0
 19 21  2  0
  5  1  1  0
 18 13  1  0
 19  1  1  0
  1 22  1  6
  2 23  1  0
  2 24  1  0
  6 25  1  1
  8 26  1  0
 11 27  1  0
 11 28  1  0
 11 29  1  0
 12 30  1  0
 12 31  1  0
 14 32  1  0
 15 33  1  0
 17 34  1  0
 17 35  1  0
 17 36  1  0
M  CHG  1  16   1
M  END
>  <_MoleculeID>  (224) 
smi24

>  <_InputIndex>  (224) 
24

>  <_InputSMILES>  (224) 
[H][C@@]12CC(=O)N1[C@@H](C(O)=O)[C@](C)(Cn1cc[n+](C)n1)S2(=O)=O

>  <_InputInChIKey>  (224) 
HFZITXBUTWITPT-YWVKMMECSA-O

>  <_SMILES>  (224) 
C[n+]1ccn(C[C@@]2(C)[C@H](C(=O)O)N3C(=O)C[C@H]3S2(=O)=O)n1

>  <_InChIKey>  (224) 
HFZITXBUTWITPT-YWVKMMECSA-O

$$$$
smi24_conf3
     RDKit          3D

 36 38  0  0  0  0  0  0  0  0999 V2000
    3.9558   -1.7040   -1.9548 C   0  0  2  0  0  0  0  0  0  0  0  0
    4.0049   -0.5875   -3.0086 C   0  0  0  0  0  0  0  0  0  0  0  0
    2.4899   -0.8125   -3.1611 C   0  0  0  0  0  0  0  0  0  0  0  0
    1.5825   -0.2534   -3.7337 O   0  0  0  0  0  0  0  0  0  0  0  0
    2.5289   -1.8421   -2.2708 N   0  0  0  0  0  0  0  0  0  0  0  0
    1.5457   -2.1738   -1.2565 C   0  0  1  0  0  0  0  0  0  0  0  0
    1.5165   -3.6602   -1.1313 C   0  0  0  0  0  0  0  0  0  0  0  0
    0.6268   -4.0913   -0.1995 O   0  0  0  0  0  0  0  0  0  0  0  0
    2.2239   -4.4020   -1.7980 O   0  0  0  0  0  0  0  0  0  0  0  0
    2.0130   -1.3969    0.0000 C   0  0  2  0  0  0  0  0  0  0  0  0
    1.6587   -2.0635    1.3345 C   0  0  0  0  0  0  0  0  0  0  0  0
    1.4450    0.0000    0.0000 C   0  0  0  0  0  0  0  0  0  0  0  0
    0.0000    0.0000    0.0000 N   0  0  0  0  0  0  0  0  0  0  0  0
   -0.8598   -0.0000    1.0922 C   0  0  0  0  0  0  0  0  0  0  0  0
   -2.1231    0.0233    0.5270 C   0  0  0  0  0  0  0  0  0  0  0  0
   -1.9259   -0.0101   -0.8343 N   0  0  0  0  0  4  0  0  0  0  0  0
   -2.9167   -0.0169   -1.8806 C   0  0  0  0  0  0  0  0  0  0  0  0
   -0.6596   -0.0208   -1.1881 N   0  0  0  0  0  0  0  0  0  0  0  0
    3.8511   -1.3063   -0.2096 S   0  0  0  0  0  6  0  0  0  0  0  0
    4.4547   -2.3938    0.5392 O   0  0  0  0  0  0  0  0  0  0  0  0
    4.2938    0.0569    0.0134 O   0  0  0  0  0  0  0  0  0  0  0  0
    4.5340   -2.6060   -2.1730 H   0  0  0  0  0  0  0  0  0  0  0  0
    4.2738    0.4092   -2.6522 H   0  0  0  0  0  0  0  0  0  0  0  0
    4.5747   -0.8268   -3.9106 H   0  0  0  0  0  0  0  0  0  0  0  0
    0.5605   -1.8265   -1.5884 H   0  0  0  0  0  0  0  0  0  0  0  0
    0.1265   -3.3774    0.2514 H   0  0  0  0  0  0  0  0  0  0  0  0
    2.0425   -1.4765    2.1769 H   0  0  0  0  0  0  0  0  0  0  0  0
    2.0882   -3.0660    1.4293 H   0  0  0  0  0  0  0  0  0  0  0  0
    0.5730   -2.1511    1.4522 H   0  0  0  0  0  0  0  0  0  0  0  0
    1.7791    0.5527    0.8852 H   0  0  0  0  0  0  0  0  0  0  0  0
    1.7835    0.5539   -0.8821 H   0  0  0  0  0  0  0  0  0  0  0  0
   -0.4923    0.0076    2.1075 H   0  0  0  0  0  0  0  0  0  0  0  0
   -3.0919    0.0573    1.0017 H   0  0  0  0  0  0  0  0  0  0  0  0
   -2.4153   -0.0307   -2.8519 H   0  0  0  0  0  0  0  0  0  0  0  0
   -3.5403    0.8766   -1.7920 H   0  0  0  0  0  0  0  0  0  0  0  0
   -3.5475   -0.9054   -1.7897 H   0  0  0  0  0  0  0  0  0  0  0  0
  1  2  1  0
  2  3  1  0
  3  4  2  0
  3  5  1  0
  5  6  1  0
  6  7  1  0
  7  8  1  0
  7  9  2  0
  6 10  1  0
 10 11  1  1
 10 12  1  0
 12 13  1  0
 13 14  1  0
 14 15  2  0
 15 16  1  0
 16 17  1  0
 16 18  2  0
 10 19  1  0
 19 20  2  0
 19 21  2  0
  5  1  1  0
 18 13  1  0
 19  1  1  0
  1 22  1  1
  2 23  1  0
  2 24  1  0
  6 25  1  6
  8 26  1  0
 11 27  1  0
 11 28  1  0
 11 29  1  0
 12 30  1  0
 12 31  1  0
 14 32  1  0
 15 33  1  0
 17 34  1  0
 17 35  1  0
 17 36  1  0
M  CHG  1  16   1
M  END
>  <_MoleculeID>  (225) 
smi24

>  <_InputIndex>  (225) 
24

>  <_InputSMILES>  (225) 
[H][C@@]12CC(=O)N1[C@@H](C(O)=O)[C@](C)(Cn1cc[n+](C)n1)S2(=O)=O

>  <_InputInChIKey>  (225) 
HFZITXBUTWITPT-YWVKMMECSA-O

>  <_SMILES>  (225) 
C[n+]1ccn(C[C@@]2(C)[C@H](C(=O)O)N3C(=O)C[C@H]3S2(=O)=O)n1

>  <_InChIKey>  (225) 
HFZITXBUTWITPT-YWVKMMECSA-O

$$$$
smi24_conf4
     RDKit          3D

 36 38  0  0  0  0  0  0  0  0999 V2000
    3.0880    1.7810   -3.1902 C   0  0  1  0  0  0  0  0  0  0  0  0
    3.3032    3.2735   -3.4823 C   0  0  0  0  0  0  0  0  0  0  0  0
    4.0266    3.3244   -2.1247 C   0  0  0  0  0  0  0  0  0  0  0  0
    4.4673    4.1938   -1.4079 O   0  0  0  0  0  0  0  0  0  0  0  0
    3.8651    1.9823   -1.9610 N   0  0  0  0  0  0  0  0  0  0  0  0
    3.5607    1.2707   -0.7337 C   0  0  2  0  0  0  0  0  0  0  0  0
    4.2640   -0.0439   -0.7920 C   0  0  0  0  0  0  0  0  0  0  0  0
    4.0532   -0.8017    0.3157 O   0  0  0  0  0  0  0  0  0  0  0  0
    4.9562   -0.3910   -1.7383 O   0  0  0  0  0  0  0  0  0  0  0  0
    2.0130    1.2098   -0.6985 C   0  0  2  0  0  0  0  0  0  0  0  0
    1.4372    2.4727   -0.0287 C   0  0  0  0  0  0  0  0  0  0  0  0
    1.4450    0.0000   -0.0000 C   0  0  0  0  0  0  0  0  0  0  0  0
    0.0000    0.0000    0.0000 N   0  0  0  0  0  0  0  0  0  0  0  0
   -0.8598   -0.0000    1.0922 C   0  0  0  0  0  0  0  0  0  0  0  0
   -2.1231    0.0233    0.5270 C   0  0  0  0  0  0  0  0  0  0  0  0
   -1.9259   -0.0101   -0.8343 N   0  0  0  0  0  4  0  0  0  0  0  0
   -2.9167   -0.0169   -1.8806 C   0  0  0  0  0  0  0  0  0  0  0  0
   -0.6596   -0.0208   -1.1881 N   0  0  0  0  0  0  0  0  0  0  0  0
    1.5422    1.2026   -2.4897 S   0  0  0  0  0  6  0  0  0  0  0  0
    0.4994    2.1851   -2.7168 O   0  0  0  0  0  0  0  0  0  0  0  0
    1.3428   -0.1731   -2.9083 O   0  0  0  0  0  0  0  0  0  0  0  0
    3.5546    1.0763   -3.8839 H   0  0  0  0  0  0  0  0  0  0  0  0
    3.9554    3.4895   -4.3329 H   0  0  0  0  0  0  0  0  0  0  0  0
    2.4072    3.8961   -3.5332 H   0  0  0  0  0  0  0  0  0  0  0  0
    3.9500    1.8436    0.1159 H   0  0  0  0  0  0  0  0  0  0  0  0
    3.4694   -0.3908    0.9891 H   0  0  0  0  0  0  0  0  0  0  0  0
    0.3414    2.4578   -0.0337 H   0  0  0  0  0  0  0  0  0  0  0  0
    1.7481    3.3909   -0.5362 H   0  0  0  0  0  0  0  0  0  0  0  0
    1.7622    2.5417    1.0155 H   0  0  0  0  0  0  0  0  0  0  0  0
    1.7791   -0.9212   -0.4903 H   0  0  0  0  0  0  0  0  0  0  0  0
    1.7835   -0.0387    1.0409 H   0  0  0  0  0  0  0  0  0  0  0  0
   -0.4923    0.0076    2.1075 H   0  0  0  0  0  0  0  0  0  0  0  0
   -3.0919    0.0573    1.0017 H   0  0  0  0  0  0  0  0  0  0  0  0
   -2.4153   -0.0307   -2.8519 H   0  0  0  0  0  0  0  0  0  0  0  0
   -3.5403    0.8766   -1.7920 H   0  0  0  0  0  0  0  0  0  0  0  0
   -3.5475   -0.9054   -1.7897 H   0  0  0  0  0  0  0  0  0  0  0  0
  1  2  1  0
  2  3  1  0
  3  4  2  0
  3  5  1  0
  5  6  1  0
  6  7  1  0
  7  8  1  0
  7  9  2  0
  6 10  1  0
 10 11  1  1
 10 12  1  0
 12 13  1  0
 13 14  1  0
 14 15  2  0
 15 16  1  0
 16 17  1  0
 16 18  2  0
 10 19  1  0
 19 20  2  0
 19 21  2  0
  5  1  1  0
 18 13  1  0
 19  1  1  0
  1 22  1  6
  2 23  1  0
  2 24  1  0
  6 25  1  1
  8 26  1  0
 11 27  1  0
 11 28  1  0
 11 29  1  0
 12 30  1  0
 12 31  1  0
 14 32  1  0
 15 33  1  0
 17 34  1  0
 17 35  1  0
 17 36  1  0
M  CHG  1  16   1
M  END
>  <_MoleculeID>  (226) 
smi24

>  <_InputIndex>  (226) 
24

>  <_InputSMILES>  (226) 
[H][C@@]12CC(=O)N1[C@@H](C(O)=O)[C@](C)(Cn1cc[n+](C)n1)S2(=O)=O

>  <_InputInChIKey>  (226) 
HFZITXBUTWITPT-YWVKMMECSA-O

>  <_SMILES>  (226) 
C[n+]1ccn(C[C@@]2(C)[C@H](C(=O)O)N3C(=O)C[C@H]3S2(=O)=O)n1

>  <_InChIKey>  (226) 
HFZITXBUTWITPT-YWVKMMECSA-O

$$$$
smi24_conf5
     RDKit          3D

 36 38  0  0  0  0  0  0  0  0999 V2000
    4.1172    2.9701   -0.2936 C   0  0  1  0  0  0  0  0  0  0  0  0
    4.4126    3.9161   -1.4671 C   0  0  0  0  0  0  0  0  0  0  0  0
    2.9090    4.2441   -1.4406 C   0  0  0  0  0  0  0  0  0  0  0  0
    2.1422    4.8595   -2.1457 O   0  0  0  0  0  0  0  0  0  0  0  0
    2.7289    3.4436   -0.3540 N   0  0  0  0  0  0  0  0  0  0  0  0
    1.6053    2.5686   -0.0757 C   0  0  2  0  0  0  0  0  0  0  0  0
    1.3906    2.5711    1.4007 C   0  0  0  0  0  0  0  0  0  0  0  0
    0.0906    2.3744    1.7426 O   0  0  0  0  0  0  0  0  0  0  0  0
    2.2940    2.7367    2.2080 O   0  0  0  0  0  0  0  0  0  0  0  0
    2.0130    1.2098   -0.6985 C   0  0  2  0  0  0  0  0  0  0  0  0
    1.6036    1.1508   -2.1830 C   0  0  0  0  0  0  0  0  0  0  0  0
    1.4450    0.0000   -0.0000 C   0  0  0  0  0  0  0  0  0  0  0  0
    0.0000    0.0000    0.0000 N   0  0  0  0  0  0  0  0  0  0  0  0
   -0.8598   -0.0000    1.0922 C   0  0  0  0  0  0  0  0  0  0  0  0
   -2.1231    0.0233    0.5270 C   0  0  0  0  0  0  0  0  0  0  0  0
   -1.9259   -0.0101   -0.8343 N   0  0  0  0  0  4  0  0  0  0  0  0
   -2.9167   -0.0169   -1.8806 C   0  0  0  0  0  0  0  0  0  0  0  0
   -0.6596   -0.0208   -1.1881 N   0  0  0  0  0  0  0  0  0  0  0  0
    3.8611    1.2183   -0.5768 S   0  0  0  0  0  6  0  0  0  0  0  0
    4.4290    0.8371   -1.8561 O   0  0  0  0  0  0  0  0  0  0  0  0
    4.2470    0.5045    0.6269 O   0  0  0  0  0  0  0  0  0  0  0  0
    4.6100    3.2012    0.6548 H   0  0  0  0  0  0  0  0  0  0  0  0
    5.0501    4.7705   -1.2239 H   0  0  0  0  0  0  0  0  0  0  0  0
    4.7511    3.4521   -2.3961 H   0  0  0  0  0  0  0  0  0  0  0  0
    0.7108    2.9715   -0.5647 H   0  0  0  0  0  0  0  0  0  0  0  0
   -0.5192    2.2512    0.9836 H   0  0  0  0  0  0  0  0  0  0  0  0
    1.9223    0.2087   -2.6435 H   0  0  0  0  0  0  0  0  0  0  0  0
    2.0475    1.9611   -2.7692 H   0  0  0  0  0  0  0  0  0  0  0  0
    0.5152    1.2191   -2.2894 H   0  0  0  0  0  0  0  0  0  0  0  0
    1.7791   -0.9212   -0.4903 H   0  0  0  0  0  0  0  0  0  0  0  0
    1.7835   -0.0387    1.0409 H   0  0  0  0  0  0  0  0  0  0  0  0
   -0.4923    0.0076    2.1075 H   0  0  0  0  0  0  0  0  0  0  0  0
   -3.0919    0.0573    1.0017 H   0  0  0  0  0  0  0  0  0  0  0  0
   -2.4153   -0.0307   -2.8519 H   0  0  0  0  0  0  0  0  0  0  0  0
   -3.5403    0.8766   -1.7920 H   0  0  0  0  0  0  0  0  0  0  0  0
   -3.5475   -0.9054   -1.7897 H   0  0  0  0  0  0  0  0  0  0  0  0
  1  2  1  0
  2  3  1  0
  3  4  2  0
  3  5  1  0
  5  6  1  0
  6  7  1  0
  7  8  1  0
  7  9  2  0
  6 10  1  0
 10 11  1  6
 10 12  1  0
 12 13  1  0
 13 14  1  0
 14 15  2  0
 15 16  1  0
 16 17  1  0
 16 18  2  0
 10 19  1  0
 19 20  2  0
 19 21  2  0
  5  1  1  0
 18 13  1  0
 19  1  1  0
  1 22  1  1
  2 23  1  0
  2 24  1  0
  6 25  1  6
  8 26  1  0
 11 27  1  0
 11 28  1  0
 11 29  1  0
 12 30  1  0
 12 31  1  0
 14 32  1  0
 15 33  1  0
 17 34  1  0
 17 35  1  0
 17 36  1  0
M  CHG  1  16   1
M  END
>  <_MoleculeID>  (227) 
smi24

>  <_InputIndex>  (227) 
24

>  <_InputSMILES>  (227) 
[H][C@@]12CC(=O)N1[C@@H](C(O)=O)[C@](C)(Cn1cc[n+](C)n1)S2(=O)=O

>  <_InputInChIKey>  (227) 
HFZITXBUTWITPT-YWVKMMECSA-O

>  <_SMILES>  (227) 
C[n+]1ccn(C[C@@]2(C)[C@H](C(=O)O)N3C(=O)C[C@H]3S2(=O)=O)n1

>  <_InChIKey>  (227) 
HFZITXBUTWITPT-YWVKMMECSA-O

$$$$
smi24_conf6
     RDKit          3D

 36 38  0  0  0  0  0  0  0  0999 V2000
    3.1839    2.0178   -2.4359 C   0  0  2  0  0  0  0  0  0  0  0  0
    3.4309    0.8209   -3.3663 C   0  0  0  0  0  0  0  0  0  0  0  0
    4.1061    0.1554   -2.1538 C   0  0  0  0  0  0  0  0  0  0  0  0
    4.5335   -0.9464   -1.8944 O   0  0  0  0  0  0  0  0  0  0  0  0
    3.9195    1.2767   -1.4041 N   0  0  0  0  0  0  0  0  0  0  0  0
    3.5618    1.3541    0.0000 C   0  0  1  0  0  0  0  0  0  0  0  0
    4.2477    2.5497    0.5710 C   0  0  0  0  0  0  0  0  0  0  0  0
    4.5443    2.4055    1.8888 O   0  0  0  0  0  0  0  0  0  0  0  0
    4.5074    3.5488   -0.0846 O   0  0  0  0  0  0  0  0  0  0  0  0
    2.0130    1.3969   -0.0000 C   0  0  2  0  0  0  0  0  0  0  0  0
    1.3930    2.1715    1.1689 C   0  0  0  0  0  0  0  0  0  0  0  0
    1.4450    0.0000   -0.0000 C   0  0  0  0  0  0  0  0  0  0  0  0
    0.0000    0.0000    0.0000 N   0  0  0  0  0  0  0  0  0  0  0  0
   -0.8598   -0.0000    1.0922 C   0  0  0  0  0  0  0  0  0  0  0  0
   -2.1231    0.0233    0.5270 C   0  0  0  0  0  0  0  0  0  0  0  0
   -1.9259   -0.0101   -0.8343 N   0  0  0  0  0  4  0  0  0  0  0  0
   -2.9167   -0.0169   -1.8806 C   0  0  0  0  0  0  0  0  0  0  0  0
   -0.6596   -0.0208   -1.1881 N   0  0  0  0  0  0  0  0  0  0  0  0
    1.6058    2.2192   -1.6090 S   0  0  0  0  0  6  0  0  0  0  0  0
    1.4009    3.6354   -1.3641 O   0  0  0  0  0  0  0  0  0  0  0  0
    0.5863    1.4505   -2.2973 O   0  0  0  0  0  0  0  0  0  0  0  0
    3.6650    2.9593   -2.7146 H   0  0  0  0  0  0  0  0  0  0  0  0
    2.5461    0.2933   -3.7290 H   0  0  0  0  0  0  0  0  0  0  0  0
    4.1161    1.0132   -4.1964 H   0  0  0  0  0  0  0  0  0  0  0  0
    3.9292    0.4568    0.5111 H   0  0  0  0  0  0  0  0  0  0  0  0
    4.2785    1.5445    2.2775 H   0  0  0  0  0  0  0  0  0  0  0  0
    0.2998    2.1851    1.0907 H   0  0  0  0  0  0  0  0  0  0  0  0
    1.7183    3.2164    1.1987 H   0  0  0  0  0  0  0  0  0  0  0  0
    1.6562    1.7107    2.1273 H   0  0  0  0  0  0  0  0  0  0  0  0
    1.7791   -0.5527   -0.8852 H   0  0  0  0  0  0  0  0  0  0  0  0
    1.7835   -0.5539    0.8821 H   0  0  0  0  0  0  0  0  0  0  0  0
   -0.4923    0.0076    2.1075 H   0  0  0  0  0  0  0  0  0  0  0  0
   -3.0919    0.0573    1.0017 H   0  0  0  0  0  0  0  0  0  0  0  0
   -2.4153   -0.0307   -2.8519 H   0  0  0  0  0  0  0  0  0  0  0  0
   -3.5403    0.8766   -1.7920 H   0  0  0  0  0  0  0  0  0  0  0  0
   -3.5475   -0.9054   -1.7897 H   0  0  0  0  0  0  0  0  0  0  0  0
  1  2  1  0
  2  3  1  0
  3  4  2  0
  3  5  1  0
  5  6  1  0
  6  7  1  0
  7  8  1  0
  7  9  2  0
  6 10  1  0
 10 11  1  1
 10 12  1  0
 12 13  1  0
 13 14  1  0
 14 15  2  0
 15 16  1  0
 16 17  1  0
 16 18  2  0
 10 19  1  0
 19 20  2  0
 19 21  2  0
  5  1  1  0
 18 13  1  0
 19  1  1  0
  1 22  1  6
  2 23  1  0
  2 24  1  0
  6 25  1  1
  8 26  1  0
 11 27  1  0
 11 28  1  0
 11 29  1  0
 12 30  1  0
 12 31  1  0
 14 32  1  0
 15 33  1  0
 17 34  1  0
 17 35  1  0
 17 36  1  0
M  CHG  1  16   1
M  END
>  <_MoleculeID>  (228) 
smi24

>  <_InputIndex>  (228) 
24

>  <_InputSMILES>  (228) 
[H][C@@]12CC(=O)N1[C@@H](C(O)=O)[C@](C)(Cn1cc[n+](C)n1)S2(=O)=O

>  <_InputInChIKey>  (228) 
HFZITXBUTWITPT-YWVKMMECSA-O

>  <_SMILES>  (228) 
C[n+]1ccn(C[C@@]2(C)[C@H](C(=O)O)N3C(=O)C[C@H]3S2(=O)=O)n1

>  <_InChIKey>  (228) 
HFZITXBUTWITPT-YWVKMMECSA-O

$$$$
smi24_conf7
     RDKit          3D

 36 38  0  0  0  0  0  0  0  0999 V2000
    2.9813    3.7006    0.4130 C   0  0  2  0  0  0  0  0  0  0  0  0
    4.0212    4.3726   -0.4902 C   0  0  0  0  0  0  0  0  0  0  0  0
    4.8997    3.1369   -0.2191 C   0  0  0  0  0  0  0  0  0  0  0  0
    5.9470    2.7072   -0.6470 O   0  0  0  0  0  0  0  0  0  0  0  0
    3.9553    2.6142    0.6150 N   0  0  0  0  0  0  0  0  0  0  0  0
    3.5626    1.2131    0.7004 C   0  0  1  0  0  0  0  0  0  0  0  0
    4.2430    0.5657    1.8597 C   0  0  0  0  0  0  0  0  0  0  0  0
    4.4701   -0.7591    1.6624 O   0  0  0  0  0  0  0  0  0  0  0  0
    4.5555    1.1707    2.8753 O   0  0  0  0  0  0  0  0  0  0  0  0
    2.0130    1.2098    0.6985 C   0  0  2  0  0  0  0  0  0  0  0  0
    1.3899    1.3454    2.0985 C   0  0  0  0  0  0  0  0  0  0  0  0
    1.4450    0.0000    0.0000 C   0  0  0  0  0  0  0  0  0  0  0  0
    0.0000    0.0000    0.0000 N   0  0  0  0  0  0  0  0  0  0  0  0
   -0.8598   -0.0000    1.0922 C   0  0  0  0  0  0  0  0  0  0  0  0
   -2.1231    0.0233    0.5270 C   0  0  0  0  0  0  0  0  0  0  0  0
   -1.9259   -0.0101   -0.8343 N   0  0  0  0  0  4  0  0  0  0  0  0
   -2.9167   -0.0169   -1.8806 C   0  0  0  0  0  0  0  0  0  0  0  0
   -0.6596   -0.0208   -1.1881 N   0  0  0  0  0  0  0  0  0  0  0  0
    1.6428    2.7388   -0.2737 S   0  0  0  0  0  6  0  0  0  0  0  0
    0.3729    3.2891    0.1580 O   0  0  0  0  0  0  0  0  0  0  0  0
    1.8886    2.4690   -1.6783 O   0  0  0  0  0  0  0  0  0  0  0  0
    2.7311    4.2200    1.3422 H   0  0  0  0  0  0  0  0  0  0  0  0
    3.7413    4.5024   -1.5381 H   0  0  0  0  0  0  0  0  0  0  0  0
    4.4420    5.3029   -0.0991 H   0  0  0  0  0  0  0  0  0  0  0  0
    3.9363    0.7315   -0.2129 H   0  0  0  0  0  0  0  0  0  0  0  0
    4.1676   -1.1025    0.7943 H   0  0  0  0  0  0  0  0  0  0  0  0
    0.3006    1.4482    2.0371 H   0  0  0  0  0  0  0  0  0  0  0  0
    1.7695    2.2242    2.6302 H   0  0  0  0  0  0  0  0  0  0  0  0
    1.5931    0.4631    2.7147 H   0  0  0  0  0  0  0  0  0  0  0  0
    1.7791   -0.0360   -1.0430 H   0  0  0  0  0  0  0  0  0  0  0  0
    1.7835   -0.9207    0.4870 H   0  0  0  0  0  0  0  0  0  0  0  0
   -0.4923    0.0076    2.1075 H   0  0  0  0  0  0  0  0  0  0  0  0
   -3.0919    0.0573    1.0017 H   0  0  0  0  0  0  0  0  0  0  0  0
   -2.4153   -0.0307   -2.8519 H   0  0  0  0  0  0  0  0  0  0  0  0
   -3.5403    0.8766   -1.7920 H   0  0  0  0  0  0  0  0  0  0  0  0
   -3.5475   -0.9054   -1.7897 H   0  0  0  0  0  0  0  0  0  0  0  0
  1  2  1  0
  2  3  1  0
  3  4  2  0
  3  5  1  0
  5  6  1  0
  6  7  1  0
  7  8  1  0
  7  9  2  0
  6 10  1  0
 10 11  1  1
 10 12  1  0
 12 13  1  0
 13 14  1  0
 14 15  2  0
 15 16  1  0
 16 17  1  0
 16 18  2  0
 10 19  1  0
 19 20  2  0
 19 21  2  0
  5  1  1  0
 18 13  1  0
 19  1  1  0
  1 22  1  1
  2 23  1  0
  2 24  1  0
  6 25  1  6
  8 26  1  0
 11 27  1  0
 11 28  1  0
 11 29  1  0
 12 30  1  0
 12 31  1  0
 14 32  1  0
 15 33  1  0
 17 34  1  0
 17 35  1  0
 17 36  1  0
M  CHG  1  16   1
M  END
>  <_MoleculeID>  (229) 
smi24

>  <_InputIndex>  (229) 
24

>  <_InputSMILES>  (229) 
[H][C@@]12CC(=O)N1[C@@H](C(O)=O)[C@](C)(Cn1cc[n+](C)n1)S2(=O)=O

>  <_InputInChIKey>  (229) 
HFZITXBUTWITPT-YWVKMMECSA-O

>  <_SMILES>  (229) 
C[n+]1ccn(C[C@@]2(C)[C@H](C(=O)O)N3C(=O)C[C@H]3S2(=O)=O)n1

>  <_InChIKey>  (229) 
HFZITXBUTWITPT-YWVKMMECSA-O

$$$$
smi24_conf8
     RDKit          3D

 36 38  0  0  0  0  0  0  0  0999 V2000
    3.1839    2.0178   -2.4359 C   0  0  2  0  0  0  0  0  0  0  0  0
    3.4309    0.8209   -3.3663 C   0  0  0  0  0  0  0  0  0  0  0  0
    4.1061    0.1554   -2.1538 C   0  0  0  0  0  0  0  0  0  0  0  0
    4.5335   -0.9464   -1.8944 O   0  0  0  0  0  0  0  0  0  0  0  0
    3.9195    1.2767   -1.4041 N   0  0  0  0  0  0  0  0  0  0  0  0
    3.5618    1.3541   -0.0000 C   0  0  1  0  0  0  0  0  0  0  0  0
    4.2477    2.5497    0.5710 C   0  0  0  0  0  0  0  0  0  0  0  0
    4.9969    3.2137   -0.3474 O   0  0  0  0  0  0  0  0  0  0  0  0
    4.1430    2.8855    1.7421 O   0  0  0  0  0  0  0  0  0  0  0  0
    2.0130    1.3969   -0.0000 C   0  0  2  0  0  0  0  0  0  0  0  0
    1.3930    2.1715    1.1689 C   0  0  0  0  0  0  0  0  0  0  0  0
    1.4450   -0.0000    0.0000 C   0  0  0  0  0  0  0  0  0  0  0  0
    0.0000    0.0000    0.0000 N   0  0  0  0  0  0  0  0  0  0  0  0
   -0.8598   -0.0000    1.0922 C   0  0  0  0  0  0  0  0  0  0  0  0
   -2.1231    0.0233    0.5270 C   0  0  0  0  0  0  0  0  0  0  0  0
   -1.9259   -0.0101   -0.8343 N   0  0  0  0  0  4  0  0  0  0  0  0
   -2.9167   -0.0169   -1.8806 C   0  0  0  0  0  0  0  0  0  0  0  0
   -0.6596   -0.0208   -1.1881 N   0  0  0  0  0  0  0  0  0  0  0  0
    1.6058    2.2192   -1.6090 S   0  0  0  0  0  6  0  0  0  0  0  0
    1.4009    3.6354   -1.3641 O   0  0  0  0  0  0  0  0  0  0  0  0
    0.5863    1.4505   -2.2973 O   0  0  0  0  0  0  0  0  0  0  0  0
    3.6650    2.9593   -2.7146 H   0  0  0  0  0  0  0  0  0  0  0  0
    2.5461    0.2933   -3.7290 H   0  0  0  0  0  0  0  0  0  0  0  0
    4.1161    1.0132   -4.1964 H   0  0  0  0  0  0  0  0  0  0  0  0
    3.9292    0.4568    0.5111 H   0  0  0  0  0  0  0  0  0  0  0  0
    4.9784    2.8270   -1.2492 H   0  0  0  0  0  0  0  0  0  0  0  0
    0.2998    2.1851    1.0907 H   0  0  0  0  0  0  0  0  0  0  0  0
    1.7183    3.2164    1.1987 H   0  0  0  0  0  0  0  0  0  0  0  0
    1.6562    1.7107    2.1273 H   0  0  0  0  0  0  0  0  0  0  0  0
    1.7791   -0.5527   -0.8852 H   0  0  0  0  0  0  0  0  0  0  0  0
    1.7835   -0.5539    0.8821 H   0  0  0  0  0  0  0  0  0  0  0  0
   -0.4923    0.0076    2.1075 H   0  0  0  0  0  0  0  0  0  0  0  0
   -3.0919    0.0573    1.0017 H   0  0  0  0  0  0  0  0  0  0  0  0
   -2.4153   -0.0307   -2.8519 H   0  0  0  0  0  0  0  0  0  0  0  0
   -3.5403    0.8766   -1.7920 H   0  0  0  0  0  0  0  0  0  0  0  0
   -3.5475   -0.9054   -1.7897 H   0  0  0  0  0  0  0  0  0  0  0  0
  1  2  1  0
  2  3  1  0
  3  4  2  0
  3  5  1  0
  5  6  1  0
  6  7  1  0
  7  8  1  0
  7  9  2  0
  6 10  1  0
 10 11  1  1
 10 12  1  0
 12 13  1  0
 13 14  1  0
 14 15  2  0
 15 16  1  0
 16 17  1  0
 16 18  2  0
 10 19  1  0
 19 20  2  0
 19 21  2  0
  5  1  1  0
 18 13  1  0
 19  1  1  0
  1 22  1  6
  2 23  1  0
  2 24  1  0
  6 25  1  1
  8 26  1  0
 11 27  1  0
 11 28  1  0
 11 29  1  0
 12 30  1  0
 12 31  1  0
 14 32  1  0
 15 33  1  0
 17 34  1  0
 17 35  1  0
 17 36  1  0
M  CHG  1  16   1
M  END
>  <_MoleculeID>  (230) 
smi24

>  <_InputIndex>  (230) 
24

>  <_InputSMILES>  (230) 
[H][C@@]12CC(=O)N1[C@@H](C(O)=O)[C@](C)(Cn1cc[n+](C)n1)S2(=O)=O

>  <_InputInChIKey>  (230) 
HFZITXBUTWITPT-YWVKMMECSA-O

>  <_SMILES>  (230) 
C[n+]1ccn(C[C@@]2(C)[C@H](C(=O)O)N3C(=O)C[C@H]3S2(=O)=O)n1

>  <_InChIKey>  (230) 
HFZITXBUTWITPT-YWVKMMECSA-O

$$$$
smi24_conf9
     RDKit          3D

 36 38  0  0  0  0  0  0  0  0999 V2000
    3.0880   -1.7810    3.1902 C   0  0  1  0  0  0  0  0  0  0  0  0
    3.3032   -3.2735    3.4823 C   0  0  0  0  0  0  0  0  0  0  0  0
    4.0266   -3.3244    2.1247 C   0  0  0  0  0  0  0  0  0  0  0  0
    4.4673   -4.1938    1.4079 O   0  0  0  0  0  0  0  0  0  0  0  0
    3.8651   -1.9823    1.9610 N   0  0  0  0  0  0  0  0  0  0  0  0
    3.5607   -1.2707    0.7337 C   0  0  2  0  0  0  0  0  0  0  0  0
    4.2640    0.0439    0.7920 C   0  0  0  0  0  0  0  0  0  0  0  0
    5.4111   -0.0061    1.5180 O   0  0  0  0  0  0  0  0  0  0  0  0
    3.8429    1.0528    0.2444 O   0  0  0  0  0  0  0  0  0  0  0  0
    2.0130   -1.2098    0.6985 C   0  0  2  0  0  0  0  0  0  0  0  0
    1.4372   -2.4727    0.0287 C   0  0  0  0  0  0  0  0  0  0  0  0
    1.4450    0.0000    0.0000 C   0  0  0  0  0  0  0  0  0  0  0  0
    0.0000    0.0000    0.0000 N   0  0  0  0  0  0  0  0  0  0  0  0
   -0.8598   -0.0000    1.0922 C   0  0  0  0  0  0  0  0  0  0  0  0
   -2.1231    0.0233    0.5270 C   0  0  0  0  0  0  0  0  0  0  0  0
   -1.9259   -0.0101   -0.8343 N   0  0  0  0  0  4  0  0  0  0  0  0
   -2.9167   -0.0169   -1.8806 C   0  0  0  0  0  0  0  0  0  0  0  0
   -0.6596   -0.0208   -1.1881 N   0  0  0  0  0  0  0  0  0  0  0  0
    1.5422   -1.2026    2.4897 S   0  0  0  0  0  6  0  0  0  0  0  0
    0.4994   -2.1851    2.7168 O   0  0  0  0  0  0  0  0  0  0  0  0
    1.3428    0.1731    2.9083 O   0  0  0  0  0  0  0  0  0  0  0  0
    3.5546   -1.0763    3.8839 H   0  0  0  0  0  0  0  0  0  0  0  0
    3.9554   -3.4895    4.3329 H   0  0  0  0  0  0  0  0  0  0  0  0
    2.4072   -3.8961    3.5332 H   0  0  0  0  0  0  0  0  0  0  0  0
    3.9500   -1.8436   -0.1159 H   0  0  0  0  0  0  0  0  0  0  0  0
    5.6217   -0.8884    1.8925 H   0  0  0  0  0  0  0  0  0  0  0  0
    0.3414   -2.4578    0.0337 H   0  0  0  0  0  0  0  0  0  0  0  0
    1.7481   -3.3909    0.5362 H   0  0  0  0  0  0  0  0  0  0  0  0
    1.7622   -2.5417   -1.0155 H   0  0  0  0  0  0  0  0  0  0  0  0
    1.7791    0.9212    0.4903 H   0  0  0  0  0  0  0  0  0  0  0  0
    1.7835    0.0387   -1.0409 H   0  0  0  0  0  0  0  0  0  0  0  0
   -0.4923    0.0076    2.1075 H   0  0  0  0  0  0  0  0  0  0  0  0
   -3.0919    0.0573    1.0017 H   0  0  0  0  0  0  0  0  0  0  0  0
   -2.4153   -0.0307   -2.8519 H   0  0  0  0  0  0  0  0  0  0  0  0
   -3.5403    0.8766   -1.7920 H   0  0  0  0  0  0  0  0  0  0  0  0
   -3.5475   -0.9054   -1.7897 H   0  0  0  0  0  0  0  0  0  0  0  0
  1  2  1  0
  2  3  1  0
  3  4  2  0
  3  5  1  0
  5  6  1  0
  6  7  1  0
  7  8  1  0
  7  9  2  0
  6 10  1  0
 10 11  1  6
 10 12  1  0
 12 13  1  0
 13 14  1  0
 14 15  2  0
 15 16  1  0
 16 17  1  0
 16 18  2  0
 10 19  1  0
 19 20  2  0
 19 21  2  0
  5  1  1  0
 18 13  1  0
 19  1  1  0
  1 22  1  1
  2 23  1  0
  2 24  1  0
  6 25  1  6
  8 26  1  0
 11 27  1  0
 11 28  1  0
 11 29  1  0
 12 30  1  0
 12 31  1  0
 14 32  1  0
 15 33  1  0
 17 34  1  0
 17 35  1  0
 17 36  1  0
M  CHG  1  16   1
M  END
>  <_MoleculeID>  (231) 
smi24

>  <_InputIndex>  (231) 
24

>  <_InputSMILES>  (231) 
[H][C@@]12CC(=O)N1[C@@H](C(O)=O)[C@](C)(Cn1cc[n+](C)n1)S2(=O)=O

>  <_InputInChIKey>  (231) 
HFZITXBUTWITPT-YWVKMMECSA-O

>  <_SMILES>  (231) 
C[n+]1ccn(C[C@@]2(C)[C@H](C(=O)O)N3C(=O)C[C@H]3S2(=O)=O)n1

>  <_InChIKey>  (231) 
HFZITXBUTWITPT-YWVKMMECSA-O

$$$$
smi25_conf0
     RDKit          3D

 43 44  0  0  0  0  0  0  0  0999 V2000
   -0.0113   -2.5563   -0.0333 C   0  0  0  0  0  0  0  0  0  0  0  0
   -0.5084   -1.2757   -0.6868 C   0  0  0  0  0  0  0  0  0  0  0  0
    0.0000    0.0000    0.0000 C   0  0  2  0  0  0  0  0  0  0  0  0
   -0.5071    1.2768   -0.6668 C   0  0  0  0  0  0  0  0  0  0  0  0
    1.4720    0.0000    0.0000 N   0  0  0  0  0  0  0  0  0  0  0  0
    2.3521    0.7263    1.2580 S   0  0  0  0  0  6  0  0  0  0  0  0
    1.6393    1.8900    1.7491 O   0  0  0  0  0  0  0  0  0  0  0  0
    3.7418    0.8382    0.8575 O   0  0  0  0  0  0  0  0  0  0  0  0
    2.2747   -0.5269    2.5056 C   0  0  0  0  0  0  0  0  0  0  0  0
    3.2566   -1.5181    2.5797 C   0  0  0  0  0  0  0  0  0  0  0  0
    3.2027   -2.5140    3.5661 C   0  0  0  0  0  0  0  0  0  0  0  0
    2.1689   -2.5633    4.5139 C   0  0  0  0  0  0  0  0  0  0  0  0
    2.1106   -3.5133    5.4600 F   0  0  0  0  0  0  0  0  0  0  0  0
    1.1896   -1.5577    4.4001 C   0  0  0  0  0  0  0  0  0  0  0  0
    1.2231   -0.5555    3.4208 C   0  0  0  0  0  0  0  0  0  0  0  0
    0.0852   -1.5612    5.3505 C   0  0  0  0  0  0  0  0  0  0  0  0
   -0.9342   -0.9532    5.0471 O   0  0  0  0  0  0  0  0  0  0  0  0
    0.3712   -2.2387    6.5244 N   0  0  0  0  0  0  0  0  0  0  0  0
   -0.4673   -2.3704    7.6315 C   0  0  0  0  0  0  0  0  0  0  0  0
   -1.7305   -1.7735    7.6417 C   0  0  0  0  0  0  0  0  0  0  0  0
   -2.5798   -1.9021    8.7507 C   0  0  0  0  0  0  0  0  0  0  0  0
   -2.2036   -2.6267    9.8923 C   0  0  0  0  0  0  0  0  0  0  0  0
   -3.0106   -2.7536   10.9570 F   0  0  0  0  0  0  0  0  0  0  0  0
   -0.9189   -3.2021    9.8526 C   0  0  0  0  0  0  0  0  0  0  0  0
   -0.5030   -3.8997   10.9210 F   0  0  0  0  0  0  0  0  0  0  0  0
   -0.0539   -3.0834    8.7562 C   0  0  0  0  0  0  0  0  0  0  0  0
   -0.3252   -3.4241   -0.6225 H   0  0  0  0  0  0  0  0  0  0  0  0
   -0.4181   -2.6771    0.9748 H   0  0  0  0  0  0  0  0  0  0  0  0
    1.0814   -2.5671    0.0290 H   0  0  0  0  0  0  0  0  0  0  0  0
   -1.6054   -1.2819   -0.7093 H   0  0  0  0  0  0  0  0  0  0  0  0
   -0.1802   -1.2731   -1.7343 H   0  0  0  0  0  0  0  0  0  0  0  0
   -0.3331   -0.0000    1.0451 H   0  0  0  0  0  0  0  0  0  0  0  0
   -0.0816    2.1633   -0.1831 H   0  0  0  0  0  0  0  0  0  0  0  0
   -1.5960    1.3578   -0.6029 H   0  0  0  0  0  0  0  0  0  0  0  0
   -0.2204    1.3110   -1.7237 H   0  0  0  0  0  0  0  0  0  0  0  0
    1.9509   -0.3397   -0.8426 H   0  0  0  0  0  0  0  0  0  0  0  0
    4.0775   -1.5306    1.8665 H   0  0  0  0  0  0  0  0  0  0  0  0
    3.9964   -3.2570    3.5625 H   0  0  0  0  0  0  0  0  0  0  0  0
    0.4424    0.2000    3.3725 H   0  0  0  0  0  0  0  0  0  0  0  0
    1.2964   -2.6517    6.6227 H   0  0  0  0  0  0  0  0  0  0  0  0
   -2.0705   -1.1957    6.7854 H   0  0  0  0  0  0  0  0  0  0  0  0
   -3.5463   -1.4077    8.6934 H   0  0  0  0  0  0  0  0  0  0  0  0
    0.9304   -3.5454    8.7728 H   0  0  0  0  0  0  0  0  0  0  0  0
  1  2  1  0
  2  3  1  0
  3  4  1  0
  3  5  1  0
  5  6  1  0
  6  7  2  0
  6  8  2  0
  6  9  1  0
  9 10  2  0
 10 11  1  0
 11 12  2  0
 12 13  1  0
 12 14  1  0
 14 15  2  0
 14 16  1  0
 16 17  2  0
 16 18  1  0
 18 19  1  0
 19 20  2  0
 20 21  1  0
 21 22  2  0
 22 23  1  0
 22 24  1  0
 24 25  1  0
 24 26  2  0
 15  9  1  0
 26 19  1  0
  1 27  1  0
  1 28  1  0
  1 29  1  0
  2 30  1  0
  2 31  1  0
  3 32  1  1
  4 33  1  0
  4 34  1  0
  4 35  1  0
  5 36  1  0
 10 37  1  0
 11 38  1  0
 15 39  1  0
 18 40  1  0
 20 41  1  0
 21 42  1  0
 26 43  1  0
M  END
>  <_MoleculeID>  (232) 
smi25

>  <_InputIndex>  (232) 
25

>  <_InputSMILES>  (232) 
CC[C@@H](C)NS(=O)(=O)c1ccc(F)c(c1)C(=O)Nc1ccc(F)c(F)c1

>  <_InputInChIKey>  (232) 
BBLXLHYPDOMJMO-SNVBAGLBSA-N

>  <_SMILES>  (232) 
CC[C@@H](C)NS(=O)(=O)c1ccc(F)c(C(=O)Nc2ccc(F)c(F)c2)c1

>  <_InChIKey>  (232) 
BBLXLHYPDOMJMO-SNVBAGLBSA-N

$$$$
smi25_conf1
     RDKit          3D

 43 44  0  0  0  0  0  0  0  0999 V2000
   -2.0246   -1.3973   -0.6960 C   0  0  0  0  0  0  0  0  0  0  0  0
   -0.5084   -1.2757   -0.6868 C   0  0  0  0  0  0  0  0  0  0  0  0
    0.0000    0.0000    0.0000 C   0  0  2  0  0  0  0  0  0  0  0  0
   -0.5071    1.2768   -0.6668 C   0  0  0  0  0  0  0  0  0  0  0  0
    1.4720    0.0000    0.0000 N   0  0  0  0  0  0  0  0  0  0  0  0
    2.3521   -0.7263    1.2580 S   0  0  0  0  0  6  0  0  0  0  0  0
    3.7393   -0.8789    0.8637 O   0  0  0  0  0  0  0  0  0  0  0  0
    1.6068   -1.8661    1.7576 O   0  0  0  0  0  0  0  0  0  0  0  0
    2.2747    0.5269    2.5056 C   0  0  0  0  0  0  0  0  0  0  0  0
    3.2566    1.5181    2.5797 C   0  0  0  0  0  0  0  0  0  0  0  0
    3.2016    2.5152    3.5648 C   0  0  0  0  0  0  0  0  0  0  0  0
    2.1698    2.5623    4.5150 C   0  0  0  0  0  0  0  0  0  0  0  0
    2.1110    3.5128    5.4605 F   0  0  0  0  0  0  0  0  0  0  0  0
    1.2062    1.5398    4.4191 C   0  0  0  0  0  0  0  0  0  0  0  0
    1.2440    0.5331    3.4447 C   0  0  0  0  0  0  0  0  0  0  0  0
    0.1144    1.5297    5.3838 C   0  0  0  0  0  0  0  0  0  0  0  0
   -0.4940    0.4795    5.5502 O   0  0  0  0  0  0  0  0  0  0  0  0
   -0.1184    2.7656    5.9648 N   0  0  0  0  0  0  0  0  0  0  0  0
   -1.1216    3.0745    6.8836 C   0  0  0  0  0  0  0  0  0  0  0  0
   -2.0331    2.0991    7.2958 C   0  0  0  0  0  0  0  0  0  0  0  0
   -3.0440    2.4016    8.2201 C   0  0  0  0  0  0  0  0  0  0  0  0
   -3.1882    3.6861    8.7669 C   0  0  0  0  0  0  0  0  0  0  0  0
   -4.1530    3.9830    9.6511 F   0  0  0  0  0  0  0  0  0  0  0  0
   -2.2615    4.6468    8.3180 C   0  0  0  0  0  0  0  0  0  0  0  0
   -2.3573    5.8950    8.8015 F   0  0  0  0  0  0  0  0  0  0  0  0
   -1.2461    4.3662    7.3935 C   0  0  0  0  0  0  0  0  0  0  0  0
   -2.3205   -2.3672   -1.1087 H   0  0  0  0  0  0  0  0  0  0  0  0
   -2.4862   -0.6212   -1.3133 H   0  0  0  0  0  0  0  0  0  0  0  0
   -2.4310   -1.3229    0.3176 H   0  0  0  0  0  0  0  0  0  0  0  0
   -0.1340   -1.3258   -1.7170 H   0  0  0  0  0  0  0  0  0  0  0  0
   -0.0954   -2.1503   -0.1676 H   0  0  0  0  0  0  0  0  0  0  0  0
   -0.3331   -0.0000    1.0451 H   0  0  0  0  0  0  0  0  0  0  0  0
   -0.0816    2.1633   -0.1831 H   0  0  0  0  0  0  0  0  0  0  0  0
   -1.5960    1.3578   -0.6029 H   0  0  0  0  0  0  0  0  0  0  0  0
   -0.2204    1.3110   -1.7237 H   0  0  0  0  0  0  0  0  0  0  0  0
    1.9509    0.5599   -0.7154 H   0  0  0  0  0  0  0  0  0  0  0  0
    4.0820    1.5258    1.8716 H   0  0  0  0  0  0  0  0  0  0  0  0
    4.0010    3.2520    3.5678 H   0  0  0  0  0  0  0  0  0  0  0  0
    0.4765   -0.2367    3.4115 H   0  0  0  0  0  0  0  0  0  0  0  0
    0.4645    3.5470    5.6716 H   0  0  0  0  0  0  0  0  0  0  0  0
   -1.9707    1.0883    6.8995 H   0  0  0  0  0  0  0  0  0  0  0  0
   -3.7219    1.5966    8.4927 H   0  0  0  0  0  0  0  0  0  0  0  0
   -0.5539    5.1427    7.0762 H   0  0  0  0  0  0  0  0  0  0  0  0
  1  2  1  0
  2  3  1  0
  3  4  1  0
  3  5  1  0
  5  6  1  0
  6  7  2  0
  6  8  2  0
  6  9  1  0
  9 10  2  0
 10 11  1  0
 11 12  2  0
 12 13  1  0
 12 14  1  0
 14 15  2  0
 14 16  1  0
 16 17  2  0
 16 18  1  0
 18 19  1  0
 19 20  2  0
 20 21  1  0
 21 22  2  0
 22 23  1  0
 22 24  1  0
 24 25  1  0
 24 26  2  0
 15  9  1  0
 26 19  1  0
  1 27  1  0
  1 28  1  0
  1 29  1  0
  2 30  1  0
  2 31  1  0
  3 32  1  1
  4 33  1  0
  4 34  1  0
  4 35  1  0
  5 36  1  0
 10 37  1  0
 11 38  1  0
 15 39  1  0
 18 40  1  0
 20 41  1  0
 21 42  1  0
 26 43  1  0
M  END
>  <_MoleculeID>  (233) 
smi25

>  <_InputIndex>  (233) 
25

>  <_InputSMILES>  (233) 
CC[C@@H](C)NS(=O)(=O)c1ccc(F)c(c1)C(=O)Nc1ccc(F)c(F)c1

>  <_InputInChIKey>  (233) 
BBLXLHYPDOMJMO-SNVBAGLBSA-N

>  <_SMILES>  (233) 
CC[C@@H](C)NS(=O)(=O)c1ccc(F)c(C(=O)Nc2ccc(F)c(F)c2)c1

>  <_InChIKey>  (233) 
BBLXLHYPDOMJMO-SNVBAGLBSA-N

$$$$
smi25_conf2
     RDKit          3D

 43 44  0  0  0  0  0  0  0  0999 V2000
   -0.0922   -1.3869   -2.1457 C   0  0  0  0  0  0  0  0  0  0  0  0
   -0.5084   -1.2757   -0.6868 C   0  0  0  0  0  0  0  0  0  0  0  0
    0.0000    0.0000    0.0000 C   0  0  2  0  0  0  0  0  0  0  0  0
   -0.5071    1.2768   -0.6668 C   0  0  0  0  0  0  0  0  0  0  0  0
    1.4720    0.0000   -0.0000 N   0  0  0  0  0  0  0  0  0  0  0  0
    2.3521    0.7263    1.2580 S   0  0  0  0  0  6  0  0  0  0  0  0
    1.6393    1.8900    1.7491 O   0  0  0  0  0  0  0  0  0  0  0  0
    3.7418    0.8382    0.8575 O   0  0  0  0  0  0  0  0  0  0  0  0
    2.2747   -0.5269    2.5056 C   0  0  0  0  0  0  0  0  0  0  0  0
    3.2566   -1.5181    2.5797 C   0  0  0  0  0  0  0  0  0  0  0  0
    3.2027   -2.5140    3.5661 C   0  0  0  0  0  0  0  0  0  0  0  0
    2.1689   -2.5633    4.5139 C   0  0  0  0  0  0  0  0  0  0  0  0
    2.1106   -3.5133    5.4600 F   0  0  0  0  0  0  0  0  0  0  0  0
    1.1896   -1.5577    4.4001 C   0  0  0  0  0  0  0  0  0  0  0  0
    1.2231   -0.5555    3.4208 C   0  0  0  0  0  0  0  0  0  0  0  0
    0.0852   -1.5612    5.3505 C   0  0  0  0  0  0  0  0  0  0  0  0
   -0.9342   -0.9532    5.0471 O   0  0  0  0  0  0  0  0  0  0  0  0
    0.3712   -2.2387    6.5244 N   0  0  0  0  0  0  0  0  0  0  0  0
   -0.4673   -2.3704    7.6315 C   0  0  0  0  0  0  0  0  0  0  0  0
   -0.0589   -3.1014    8.7499 C   0  0  0  0  0  0  0  0  0  0  0  0
   -0.8959   -3.2375    9.8673 C   0  0  0  0  0  0  0  0  0  0  0  0
   -2.1715   -2.6542    9.9133 C   0  0  0  0  0  0  0  0  0  0  0  0
   -2.9779   -2.7805   10.9786 F   0  0  0  0  0  0  0  0  0  0  0  0
   -2.5554   -1.9373    8.7635 C   0  0  0  0  0  0  0  0  0  0  0  0
   -3.7691   -1.3650    8.7486 F   0  0  0  0  0  0  0  0  0  0  0  0
   -1.7359   -1.7916    7.6359 C   0  0  0  0  0  0  0  0  0  0  0  0
   -0.5636   -2.2621   -2.6043 H   0  0  0  0  0  0  0  0  0  0  0  0
    0.9906   -1.5042   -2.2468 H   0  0  0  0  0  0  0  0  0  0  0  0
   -0.4005   -0.5017   -2.7108 H   0  0  0  0  0  0  0  0  0  0  0  0
   -0.1616   -2.1627   -0.1418 H   0  0  0  0  0  0  0  0  0  0  0  0
   -1.6048   -1.2953   -0.6384 H   0  0  0  0  0  0  0  0  0  0  0  0
   -0.3331    0.0000    1.0451 H   0  0  0  0  0  0  0  0  0  0  0  0
   -0.0816    2.1633   -0.1831 H   0  0  0  0  0  0  0  0  0  0  0  0
   -1.5960    1.3578   -0.6029 H   0  0  0  0  0  0  0  0  0  0  0  0
   -0.2204    1.3110   -1.7237 H   0  0  0  0  0  0  0  0  0  0  0  0
    1.9509   -0.3397   -0.8426 H   0  0  0  0  0  0  0  0  0  0  0  0
    4.0775   -1.5306    1.8665 H   0  0  0  0  0  0  0  0  0  0  0  0
    3.9964   -3.2570    3.5625 H   0  0  0  0  0  0  0  0  0  0  0  0
    0.4424    0.2000    3.3725 H   0  0  0  0  0  0  0  0  0  0  0  0
    1.2964   -2.6517    6.6227 H   0  0  0  0  0  0  0  0  0  0  0  0
    0.9179   -3.5793    8.7654 H   0  0  0  0  0  0  0  0  0  0  0  0
   -0.5170   -3.8242   10.7005 H   0  0  0  0  0  0  0  0  0  0  0  0
   -2.0772   -1.2286    6.7703 H   0  0  0  0  0  0  0  0  0  0  0  0
  1  2  1  0
  2  3  1  0
  3  4  1  0
  3  5  1  0
  5  6  1  0
  6  7  2  0
  6  8  2  0
  6  9  1  0
  9 10  2  0
 10 11  1  0
 11 12  2  0
 12 13  1  0
 12 14  1  0
 14 15  2  0
 14 16  1  0
 16 17  2  0
 16 18  1  0
 18 19  1  0
 19 20  2  0
 20 21  1  0
 21 22  2  0
 22 23  1  0
 22 24  1  0
 24 25  1  0
 24 26  2  0
 15  9  1  0
 26 19  1  0
  1 27  1  0
  1 28  1  0
  1 29  1  0
  2 30  1  0
  2 31  1  0
  3 32  1  1
  4 33  1  0
  4 34  1  0
  4 35  1  0
  5 36  1  0
 10 37  1  0
 11 38  1  0
 15 39  1  0
 18 40  1  0
 20 41  1  0
 21 42  1  0
 26 43  1  0
M  END
>  <_MoleculeID>  (234) 
smi25

>  <_InputIndex>  (234) 
25

>  <_InputSMILES>  (234) 
CC[C@@H](C)NS(=O)(=O)c1ccc(F)c(c1)C(=O)Nc1ccc(F)c(F)c1

>  <_InputInChIKey>  (234) 
BBLXLHYPDOMJMO-SNVBAGLBSA-N

>  <_SMILES>  (234) 
CC[C@@H](C)NS(=O)(=O)c1ccc(F)c(C(=O)Nc2ccc(F)c(F)c2)c1

>  <_InChIKey>  (234) 
BBLXLHYPDOMJMO-SNVBAGLBSA-N

$$$$
smi25_conf3
     RDKit          3D

 43 44  0  0  0  0  0  0  0  0999 V2000
   -0.0922   -1.3869   -2.1457 C   0  0  0  0  0  0  0  0  0  0  0  0
   -0.5084   -1.2757   -0.6868 C   0  0  0  0  0  0  0  0  0  0  0  0
    0.0000    0.0000    0.0000 C   0  0  2  0  0  0  0  0  0  0  0  0
   -0.5071    1.2768   -0.6668 C   0  0  0  0  0  0  0  0  0  0  0  0
    1.4720    0.0000    0.0000 N   0  0  0  0  0  0  0  0  0  0  0  0
    2.3521    0.7263    1.2580 S   0  0  0  0  0  6  0  0  0  0  0  0
    1.6393    1.8900    1.7491 O   0  0  0  0  0  0  0  0  0  0  0  0
    3.7418    0.8382    0.8575 O   0  0  0  0  0  0  0  0  0  0  0  0
    2.2747   -0.5269    2.5056 C   0  0  0  0  0  0  0  0  0  0  0  0
    3.2566   -1.5181    2.5797 C   0  0  0  0  0  0  0  0  0  0  0  0
    3.2027   -2.5140    3.5661 C   0  0  0  0  0  0  0  0  0  0  0  0
    2.1689   -2.5633    4.5139 C   0  0  0  0  0  0  0  0  0  0  0  0
    2.1106   -3.5133    5.4600 F   0  0  0  0  0  0  0  0  0  0  0  0
    1.1896   -1.5577    4.4001 C   0  0  0  0  0  0  0  0  0  0  0  0
    1.2231   -0.5555    3.4208 C   0  0  0  0  0  0  0  0  0  0  0  0
    0.0852   -1.5612    5.3505 C   0  0  0  0  0  0  0  0  0  0  0  0
   -0.5429   -0.5205    5.5033 O   0  0  0  0  0  0  0  0  0  0  0  0
   -0.0757   -2.7724    6.0032 N   0  0  0  0  0  0  0  0  0  0  0  0
   -1.0123   -3.0618    6.9957 C   0  0  0  0  0  0  0  0  0  0  0  0
   -1.0790   -4.3382    7.5599 C   0  0  0  0  0  0  0  0  0  0  0  0
   -2.0174   -4.6367    8.5590 C   0  0  0  0  0  0  0  0  0  0  0  0
   -2.9264   -3.6779    9.0323 C   0  0  0  0  0  0  0  0  0  0  0  0
   -3.8272   -3.9564    9.9874 F   0  0  0  0  0  0  0  0  0  0  0  0
   -2.8400   -2.4074    8.4311 C   0  0  0  0  0  0  0  0  0  0  0  0
   -3.6910   -1.4533    8.8391 F   0  0  0  0  0  0  0  0  0  0  0  0
   -1.9122   -2.0892    7.4299 C   0  0  0  0  0  0  0  0  0  0  0  0
   -0.5636   -2.2621   -2.6043 H   0  0  0  0  0  0  0  0  0  0  0  0
    0.9906   -1.5042   -2.2468 H   0  0  0  0  0  0  0  0  0  0  0  0
   -0.4005   -0.5017   -2.7108 H   0  0  0  0  0  0  0  0  0  0  0  0
   -0.1616   -2.1627   -0.1418 H   0  0  0  0  0  0  0  0  0  0  0  0
   -1.6048   -1.2953   -0.6384 H   0  0  0  0  0  0  0  0  0  0  0  0
   -0.3331    0.0000    1.0451 H   0  0  0  0  0  0  0  0  0  0  0  0
   -0.0816    2.1633   -0.1831 H   0  0  0  0  0  0  0  0  0  0  0  0
   -1.5960    1.3578   -0.6029 H   0  0  0  0  0  0  0  0  0  0  0  0
   -0.2204    1.3110   -1.7237 H   0  0  0  0  0  0  0  0  0  0  0  0
    1.9509   -0.3397   -0.8426 H   0  0  0  0  0  0  0  0  0  0  0  0
    4.0775   -1.5306    1.8665 H   0  0  0  0  0  0  0  0  0  0  0  0
    3.9964   -3.2570    3.5625 H   0  0  0  0  0  0  0  0  0  0  0  0
    0.4424    0.2000    3.3725 H   0  0  0  0  0  0  0  0  0  0  0  0
    0.5729   -3.5242    5.7788 H   0  0  0  0  0  0  0  0  0  0  0  0
   -0.4018   -5.1210    7.2263 H   0  0  0  0  0  0  0  0  0  0  0  0
   -2.0175   -5.6510    8.9502 H   0  0  0  0  0  0  0  0  0  0  0  0
   -1.8844   -1.0929    6.9948 H   0  0  0  0  0  0  0  0  0  0  0  0
  1  2  1  0
  2  3  1  0
  3  4  1  0
  3  5  1  0
  5  6  1  0
  6  7  2  0
  6  8  2  0
  6  9  1  0
  9 10  2  0
 10 11  1  0
 11 12  2  0
 12 13  1  0
 12 14  1  0
 14 15  2  0
 14 16  1  0
 16 17  2  0
 16 18  1  0
 18 19  1  0
 19 20  2  0
 20 21  1  0
 21 22  2  0
 22 23  1  0
 22 24  1  0
 24 25  1  0
 24 26  2  0
 15  9  1  0
 26 19  1  0
  1 27  1  0
  1 28  1  0
  1 29  1  0
  2 30  1  0
  2 31  1  0
  3 32  1  1
  4 33  1  0
  4 34  1  0
  4 35  1  0
  5 36  1  0
 10 37  1  0
 11 38  1  0
 15 39  1  0
 18 40  1  0
 20 41  1  0
 21 42  1  0
 26 43  1  0
M  END
>  <_MoleculeID>  (235) 
smi25

>  <_InputIndex>  (235) 
25

>  <_InputSMILES>  (235) 
CC[C@@H](C)NS(=O)(=O)c1ccc(F)c(c1)C(=O)Nc1ccc(F)c(F)c1

>  <_InputInChIKey>  (235) 
BBLXLHYPDOMJMO-SNVBAGLBSA-N

>  <_SMILES>  (235) 
CC[C@@H](C)NS(=O)(=O)c1ccc(F)c(C(=O)Nc2ccc(F)c(F)c2)c1

>  <_InChIKey>  (235) 
BBLXLHYPDOMJMO-SNVBAGLBSA-N

$$$$
smi25_conf4
     RDKit          3D

 43 44  0  0  0  0  0  0  0  0999 V2000
   -0.0113   -2.5563   -0.0333 C   0  0  0  0  0  0  0  0  0  0  0  0
   -0.5084   -1.2757   -0.6868 C   0  0  0  0  0  0  0  0  0  0  0  0
    0.0000    0.0000    0.0000 C   0  0  2  0  0  0  0  0  0  0  0  0
   -0.5071    1.2768   -0.6668 C   0  0  0  0  0  0  0  0  0  0  0  0
    1.4720    0.0000    0.0000 N   0  0  0  0  0  0  0  0  0  0  0  0
    2.3521    0.7263    1.2580 S   0  0  0  0  0  6  0  0  0  0  0  0
    3.7393    0.3085    1.1931 O   0  0  0  0  0  0  0  0  0  0  0  0
    1.6068    0.5891    2.4949 O   0  0  0  0  0  0  0  0  0  0  0  0
    2.2747    2.4333    0.7965 C   0  0  0  0  0  0  0  0  0  0  0  0
    1.2306    3.2451    1.2470 C   0  0  0  0  0  0  0  0  0  0  0  0
    1.1628    4.5990    0.8864 C   0  0  0  0  0  0  0  0  0  0  0  0
    2.1291    5.1958    0.0620 C   0  0  0  0  0  0  0  0  0  0  0  0
    2.0705    6.4901   -0.2875 F   0  0  0  0  0  0  0  0  0  0  0  0
    3.1583    4.3446   -0.3848 C   0  0  0  0  0  0  0  0  0  0  0  0
    3.2431    2.9891   -0.0387 C   0  0  0  0  0  0  0  0  0  0  0  0
    4.1871    4.9040   -1.2517 C   0  0  0  0  0  0  0  0  0  0  0  0
    4.8479    4.1283   -1.9316 O   0  0  0  0  0  0  0  0  0  0  0  0
    4.3066    6.2802   -1.1471 N   0  0  0  0  0  0  0  0  0  0  0  0
    5.2302    7.0856   -1.8137 C   0  0  0  0  0  0  0  0  0  0  0  0
    5.2287    8.4707   -1.6303 C   0  0  0  0  0  0  0  0  0  0  0  0
    6.1548    9.2871   -2.2962 C   0  0  0  0  0  0  0  0  0  0  0  0
    7.1152    8.7572   -3.1717 C   0  0  0  0  0  0  0  0  0  0  0  0
    8.0039    9.5321   -3.8125 F   0  0  0  0  0  0  0  0  0  0  0  0
    7.0779    7.3599   -3.3434 C   0  0  0  0  0  0  0  0  0  0  0  0
    7.9684    6.7991   -4.1761 F   0  0  0  0  0  0  0  0  0  0  0  0
    6.1596    6.5266   -2.6900 C   0  0  0  0  0  0  0  0  0  0  0  0
   -0.3252   -3.4241   -0.6225 H   0  0  0  0  0  0  0  0  0  0  0  0
   -0.4181   -2.6771    0.9748 H   0  0  0  0  0  0  0  0  0  0  0  0
    1.0814   -2.5671    0.0290 H   0  0  0  0  0  0  0  0  0  0  0  0
   -1.6054   -1.2819   -0.7093 H   0  0  0  0  0  0  0  0  0  0  0  0
   -0.1802   -1.2731   -1.7343 H   0  0  0  0  0  0  0  0  0  0  0  0
   -0.3331   -0.0000    1.0451 H   0  0  0  0  0  0  0  0  0  0  0  0
   -0.0816    2.1633   -0.1831 H   0  0  0  0  0  0  0  0  0  0  0  0
   -1.5960    1.3578   -0.6029 H   0  0  0  0  0  0  0  0  0  0  0  0
   -0.2204    1.3110   -1.7237 H   0  0  0  0  0  0  0  0  0  0  0  0
    1.9509   -0.3397   -0.8426 H   0  0  0  0  0  0  0  0  0  0  0  0
    0.4515    2.8327    1.8840 H   0  0  0  0  0  0  0  0  0  0  0  0
    0.3206    5.1709    1.2681 H   0  0  0  0  0  0  0  0  0  0  0  0
    4.0574    2.3710   -0.4098 H   0  0  0  0  0  0  0  0  0  0  0  0
    3.6957    6.7628   -0.4913 H   0  0  0  0  0  0  0  0  0  0  0  0
    4.5024    8.9349   -0.9672 H   0  0  0  0  0  0  0  0  0  0  0  0
    6.0937   10.3568   -2.1115 H   0  0  0  0  0  0  0  0  0  0  0  0
    6.1694    5.4518   -2.8557 H   0  0  0  0  0  0  0  0  0  0  0  0
  1  2  1  0
  2  3  1  0
  3  4  1  0
  3  5  1  0
  5  6  1  0
  6  7  2  0
  6  8  2  0
  6  9  1  0
  9 10  2  0
 10 11  1  0
 11 12  2  0
 12 13  1  0
 12 14  1  0
 14 15  2  0
 14 16  1  0
 16 17  2  0
 16 18  1  0
 18 19  1  0
 19 20  2  0
 20 21  1  0
 21 22  2  0
 22 23  1  0
 22 24  1  0
 24 25  1  0
 24 26  2  0
 15  9  1  0
 26 19  1  0
  1 27  1  0
  1 28  1  0
  1 29  1  0
  2 30  1  0
  2 31  1  0
  3 32  1  1
  4 33  1  0
  4 34  1  0
  4 35  1  0
  5 36  1  0
 10 37  1  0
 11 38  1  0
 15 39  1  0
 18 40  1  0
 20 41  1  0
 21 42  1  0
 26 43  1  0
M  END
>  <_MoleculeID>  (236) 
smi25

>  <_InputIndex>  (236) 
25

>  <_InputSMILES>  (236) 
CC[C@@H](C)NS(=O)(=O)c1ccc(F)c(c1)C(=O)Nc1ccc(F)c(F)c1

>  <_InputInChIKey>  (236) 
BBLXLHYPDOMJMO-SNVBAGLBSA-N

>  <_SMILES>  (236) 
CC[C@@H](C)NS(=O)(=O)c1ccc(F)c(C(=O)Nc2ccc(F)c(F)c2)c1

>  <_InChIKey>  (236) 
BBLXLHYPDOMJMO-SNVBAGLBSA-N

$$$$
smi25_conf5
     RDKit          3D

 43 44  0  0  0  0  0  0  0  0999 V2000
   -2.0246   -1.3973   -0.6960 C   0  0  0  0  0  0  0  0  0  0  0  0
   -0.5084   -1.2757   -0.6868 C   0  0  0  0  0  0  0  0  0  0  0  0
    0.0000    0.0000    0.0000 C   0  0  2  0  0  0  0  0  0  0  0  0
   -0.5071    1.2768   -0.6668 C   0  0  0  0  0  0  0  0  0  0  0  0
    1.4720    0.0000    0.0000 N   0  0  0  0  0  0  0  0  0  0  0  0
    2.3521    0.7263    1.2580 S   0  0  0  0  0  6  0  0  0  0  0  0
    1.6393    1.8900    1.7491 O   0  0  0  0  0  0  0  0  0  0  0  0
    3.7418    0.8382    0.8575 O   0  0  0  0  0  0  0  0  0  0  0  0
    2.2747   -0.5269    2.5056 C   0  0  0  0  0  0  0  0  0  0  0  0
    1.5974   -1.7256    2.2682 C   0  0  0  0  0  0  0  0  0  0  0  0
    1.5325   -2.7240    3.2514 C   0  0  0  0  0  0  0  0  0  0  0  0
    2.1361   -2.5666    4.5086 C   0  0  0  0  0  0  0  0  0  0  0  0
    2.0776   -3.5170    5.4542 F   0  0  0  0  0  0  0  0  0  0  0  0
    2.7971   -1.3408    4.7178 C   0  0  0  0  0  0  0  0  0  0  0  0
    2.8714   -0.3294    3.7502 C   0  0  0  0  0  0  0  0  0  0  0  0
    3.4360   -1.1142    6.0075 C   0  0  0  0  0  0  0  0  0  0  0  0
    3.6760    0.0422    6.3331 O   0  0  0  0  0  0  0  0  0  0  0  0
    3.7330   -2.2837    6.6879 N   0  0  0  0  0  0  0  0  0  0  0  0
    4.3842   -2.3856    7.9173 C   0  0  0  0  0  0  0  0  0  0  0  0
    4.6045   -3.6343    8.5040 C   0  0  0  0  0  0  0  0  0  0  0  0
    5.2595   -3.7450    9.7395 C   0  0  0  0  0  0  0  0  0  0  0  0
    5.7174   -2.6180   10.4392 C   0  0  0  0  0  0  0  0  0  0  0  0
    6.3443   -2.7162   11.6217 F   0  0  0  0  0  0  0  0  0  0  0  0
    5.4655   -1.3758    9.8253 C   0  0  0  0  0  0  0  0  0  0  0  0
    5.8742   -0.2630   10.4541 F   0  0  0  0  0  0  0  0  0  0  0  0
    4.8106   -1.2430    8.5932 C   0  0  0  0  0  0  0  0  0  0  0  0
   -2.3205   -2.3672   -1.1087 H   0  0  0  0  0  0  0  0  0  0  0  0
   -2.4862   -0.6212   -1.3133 H   0  0  0  0  0  0  0  0  0  0  0  0
   -2.4310   -1.3229    0.3176 H   0  0  0  0  0  0  0  0  0  0  0  0
   -0.1340   -1.3258   -1.7170 H   0  0  0  0  0  0  0  0  0  0  0  0
   -0.0954   -2.1503   -0.1676 H   0  0  0  0  0  0  0  0  0  0  0  0
   -0.3331   -0.0000    1.0451 H   0  0  0  0  0  0  0  0  0  0  0  0
   -0.0816    2.1633   -0.1831 H   0  0  0  0  0  0  0  0  0  0  0  0
   -1.5960    1.3578   -0.6029 H   0  0  0  0  0  0  0  0  0  0  0  0
   -0.2204    1.3110   -1.7237 H   0  0  0  0  0  0  0  0  0  0  0  0
    1.9509   -0.3397   -0.8426 H   0  0  0  0  0  0  0  0  0  0  0  0
    1.1068   -1.8980    1.3130 H   0  0  0  0  0  0  0  0  0  0  0  0
    0.9849   -3.6294    3.0015 H   0  0  0  0  0  0  0  0  0  0  0  0
    3.3931    0.6016    3.9590 H   0  0  0  0  0  0  0  0  0  0  0  0
    3.4974   -3.1676    6.2411 H   0  0  0  0  0  0  0  0  0  0  0  0
    4.2653   -4.5405    8.0075 H   0  0  0  0  0  0  0  0  0  0  0  0
    5.3928   -4.7467   10.1405 H   0  0  0  0  0  0  0  0  0  0  0  0
    4.6381   -0.2609    8.1591 H   0  0  0  0  0  0  0  0  0  0  0  0
  1  2  1  0
  2  3  1  0
  3  4  1  0
  3  5  1  0
  5  6  1  0
  6  7  2  0
  6  8  2  0
  6  9  1  0
  9 10  2  0
 10 11  1  0
 11 12  2  0
 12 13  1  0
 12 14  1  0
 14 15  2  0
 14 16  1  0
 16 17  2  0
 16 18  1  0
 18 19  1  0
 19 20  2  0
 20 21  1  0
 21 22  2  0
 22 23  1  0
 22 24  1  0
 24 25  1  0
 24 26  2  0
 15  9  1  0
 26 19  1  0
  1 27  1  0
  1 28  1  0
  1 29  1  0
  2 30  1  0
  2 31  1  0
  3 32  1  1
  4 33  1  0
  4 34  1  0
  4 35  1  0
  5 36  1  0
 10 37  1  0
 11 38  1  0
 15 39  1  0
 18 40  1  0
 20 41  1  0
 21 42  1  0
 26 43  1  0
M  END
>  <_MoleculeID>  (237) 
smi25

>  <_InputIndex>  (237) 
25

>  <_InputSMILES>  (237) 
CC[C@@H](C)NS(=O)(=O)c1ccc(F)c(c1)C(=O)Nc1ccc(F)c(F)c1

>  <_InputInChIKey>  (237) 
BBLXLHYPDOMJMO-SNVBAGLBSA-N

>  <_SMILES>  (237) 
CC[C@@H](C)NS(=O)(=O)c1ccc(F)c(C(=O)Nc2ccc(F)c(F)c2)c1

>  <_InChIKey>  (237) 
BBLXLHYPDOMJMO-SNVBAGLBSA-N

$$$$
smi25_conf6
     RDKit          3D

 43 44  0  0  0  0  0  0  0  0999 V2000
   -2.0246   -1.3973   -0.6960 C   0  0  0  0  0  0  0  0  0  0  0  0
   -0.5084   -1.2757   -0.6868 C   0  0  0  0  0  0  0  0  0  0  0  0
    0.0000    0.0000    0.0000 C   0  0  2  0  0  0  0  0  0  0  0  0
   -0.5071    1.2768   -0.6668 C   0  0  0  0  0  0  0  0  0  0  0  0
    1.4720    0.0000    0.0000 N   0  0  0  0  0  0  0  0  0  0  0  0
    2.3521    0.7263    1.2580 S   0  0  0  0  0  6  0  0  0  0  0  0
    1.6393    1.8900    1.7491 O   0  0  0  0  0  0  0  0  0  0  0  0
    3.7418    0.8382    0.8575 O   0  0  0  0  0  0  0  0  0  0  0  0
    2.2747   -0.5269    2.5056 C   0  0  0  0  0  0  0  0  0  0  0  0
    2.8897   -0.3350    3.7453 C   0  0  0  0  0  0  0  0  0  0  0  0
    2.8319   -1.3230    4.7394 C   0  0  0  0  0  0  0  0  0  0  0  0
    2.1629   -2.5400    4.5370 C   0  0  0  0  0  0  0  0  0  0  0  0
    2.1039   -3.4899    5.4831 F   0  0  0  0  0  0  0  0  0  0  0  0
    1.5674   -2.7046    3.2714 C   0  0  0  0  0  0  0  0  0  0  0  0
    1.6157   -1.7317    2.2637 C   0  0  0  0  0  0  0  0  0  0  0  0
    0.8654   -3.9516    2.9976 C   0  0  0  0  0  0  0  0  0  0  0  0
    0.0500   -3.9617    2.0833 O   0  0  0  0  0  0  0  0  0  0  0  0
    1.1991   -4.9744    3.8703 N   0  0  0  0  0  0  0  0  0  0  0  0
    0.6590   -6.2605    3.8861 C   0  0  0  0  0  0  0  0  0  0  0  0
    1.1021   -7.2064    4.8141 C   0  0  0  0  0  0  0  0  0  0  0  0
    0.5632   -8.5013    4.8370 C   0  0  0  0  0  0  0  0  0  0  0  0
   -0.4343   -8.9051    3.9361 C   0  0  0  0  0  0  0  0  0  0  0  0
   -0.9540  -10.1423    3.9517 F   0  0  0  0  0  0  0  0  0  0  0  0
   -0.8460   -7.9308    3.0063 C   0  0  0  0  0  0  0  0  0  0  0  0
   -1.7920   -8.2644    2.1148 F   0  0  0  0  0  0  0  0  0  0  0  0
   -0.3189   -6.6328    2.9646 C   0  0  0  0  0  0  0  0  0  0  0  0
   -2.3205   -2.3672   -1.1087 H   0  0  0  0  0  0  0  0  0  0  0  0
   -2.4862   -0.6212   -1.3133 H   0  0  0  0  0  0  0  0  0  0  0  0
   -2.4310   -1.3229    0.3176 H   0  0  0  0  0  0  0  0  0  0  0  0
   -0.1340   -1.3258   -1.7170 H   0  0  0  0  0  0  0  0  0  0  0  0
   -0.0954   -2.1503   -0.1676 H   0  0  0  0  0  0  0  0  0  0  0  0
   -0.3331   -0.0000    1.0451 H   0  0  0  0  0  0  0  0  0  0  0  0
   -0.0816    2.1633   -0.1831 H   0  0  0  0  0  0  0  0  0  0  0  0
   -1.5960    1.3578   -0.6029 H   0  0  0  0  0  0  0  0  0  0  0  0
   -0.2204    1.3110   -1.7237 H   0  0  0  0  0  0  0  0  0  0  0  0
    1.9509   -0.3397   -0.8426 H   0  0  0  0  0  0  0  0  0  0  0  0
    3.4267    0.5875    3.9538 H   0  0  0  0  0  0  0  0  0  0  0  0
    3.3368   -1.1099    5.6784 H   0  0  0  0  0  0  0  0  0  0  0  0
    1.1408   -1.9053    1.3009 H   0  0  0  0  0  0  0  0  0  0  0  0
    1.8728   -4.7718    4.6061 H   0  0  0  0  0  0  0  0  0  0  0  0
    1.8774   -6.9486    5.5318 H   0  0  0  0  0  0  0  0  0  0  0  0
    0.9577   -9.1880    5.5817 H   0  0  0  0  0  0  0  0  0  0  0  0
   -0.6687   -5.9148    2.2264 H   0  0  0  0  0  0  0  0  0  0  0  0
  1  2  1  0
  2  3  1  0
  3  4  1  0
  3  5  1  0
  5  6  1  0
  6  7  2  0
  6  8  2  0
  6  9  1  0
  9 10  2  0
 10 11  1  0
 11 12  2  0
 12 13  1  0
 12 14  1  0
 14 15  2  0
 14 16  1  0
 16 17  2  0
 16 18  1  0
 18 19  1  0
 19 20  2  0
 20 21  1  0
 21 22  2  0
 22 23  1  0
 22 24  1  0
 24 25  1  0
 24 26  2  0
 15  9  1  0
 26 19  1  0
  1 27  1  0
  1 28  1  0
  1 29  1  0
  2 30  1  0
  2 31  1  0
  3 32  1  1
  4 33  1  0
  4 34  1  0
  4 35  1  0
  5 36  1  0
 10 37  1  0
 11 38  1  0
 15 39  1  0
 18 40  1  0
 20 41  1  0
 21 42  1  0
 26 43  1  0
M  END
>  <_MoleculeID>  (238) 
smi25

>  <_InputIndex>  (238) 
25

>  <_InputSMILES>  (238) 
CC[C@@H](C)NS(=O)(=O)c1ccc(F)c(c1)C(=O)Nc1ccc(F)c(F)c1

>  <_InputInChIKey>  (238) 
BBLXLHYPDOMJMO-SNVBAGLBSA-N

>  <_SMILES>  (238) 
CC[C@@H](C)NS(=O)(=O)c1ccc(F)c(C(=O)Nc2ccc(F)c(F)c2)c1

>  <_InChIKey>  (238) 
BBLXLHYPDOMJMO-SNVBAGLBSA-N

$$$$
smi25_conf7
     RDKit          3D

 43 44  0  0  0  0  0  0  0  0999 V2000
   -0.0922   -1.3869   -2.1457 C   0  0  0  0  0  0  0  0  0  0  0  0
   -0.5084   -1.2757   -0.6868 C   0  0  0  0  0  0  0  0  0  0  0  0
    0.0000    0.0000    0.0000 C   0  0  2  0  0  0  0  0  0  0  0  0
   -0.5071    1.2768   -0.6668 C   0  0  0  0  0  0  0  0  0  0  0  0
    1.4720    0.0000   -0.0000 N   0  0  0  0  0  0  0  0  0  0  0  0
    2.3521    0.7263    1.2580 S   0  0  0  0  0  6  0  0  0  0  0  0
    1.6393    1.8900    1.7491 O   0  0  0  0  0  0  0  0  0  0  0  0
    3.7418    0.8382    0.8575 O   0  0  0  0  0  0  0  0  0  0  0  0
    2.2747   -0.5269    2.5056 C   0  0  0  0  0  0  0  0  0  0  0  0
    1.5974   -1.7256    2.2682 C   0  0  0  0  0  0  0  0  0  0  0  0
    1.5325   -2.7240    3.2514 C   0  0  0  0  0  0  0  0  0  0  0  0
    2.1361   -2.5666    4.5086 C   0  0  0  0  0  0  0  0  0  0  0  0
    2.0776   -3.5170    5.4542 F   0  0  0  0  0  0  0  0  0  0  0  0
    2.7971   -1.3408    4.7178 C   0  0  0  0  0  0  0  0  0  0  0  0
    2.8714   -0.3294    3.7502 C   0  0  0  0  0  0  0  0  0  0  0  0
    3.4360   -1.1142    6.0075 C   0  0  0  0  0  0  0  0  0  0  0  0
    3.6760    0.0422    6.3331 O   0  0  0  0  0  0  0  0  0  0  0  0
    3.7330   -2.2837    6.6879 N   0  0  0  0  0  0  0  0  0  0  0  0
    4.3842   -2.3856    7.9173 C   0  0  0  0  0  0  0  0  0  0  0  0
    4.8279   -1.2407    8.5839 C   0  0  0  0  0  0  0  0  0  0  0  0
    5.4826   -1.3348    9.8209 C   0  0  0  0  0  0  0  0  0  0  0  0
    5.7233   -2.5711   10.4400 C   0  0  0  0  0  0  0  0  0  0  0  0
    6.3495   -2.6689   11.6229 F   0  0  0  0  0  0  0  0  0  0  0  0
    5.2756   -3.7038    9.7330 C   0  0  0  0  0  0  0  0  0  0  0  0
    5.4866   -4.9136   10.2741 F   0  0  0  0  0  0  0  0  0  0  0  0
    4.6221   -3.6320    8.4952 C   0  0  0  0  0  0  0  0  0  0  0  0
   -0.5636   -2.2621   -2.6043 H   0  0  0  0  0  0  0  0  0  0  0  0
    0.9906   -1.5042   -2.2468 H   0  0  0  0  0  0  0  0  0  0  0  0
   -0.4005   -0.5017   -2.7108 H   0  0  0  0  0  0  0  0  0  0  0  0
   -0.1616   -2.1627   -0.1418 H   0  0  0  0  0  0  0  0  0  0  0  0
   -1.6048   -1.2953   -0.6384 H   0  0  0  0  0  0  0  0  0  0  0  0
   -0.3331    0.0000    1.0451 H   0  0  0  0  0  0  0  0  0  0  0  0
   -0.0816    2.1633   -0.1831 H   0  0  0  0  0  0  0  0  0  0  0  0
   -1.5960    1.3578   -0.6029 H   0  0  0  0  0  0  0  0  0  0  0  0
   -0.2204    1.3110   -1.7237 H   0  0  0  0  0  0  0  0  0  0  0  0
    1.9509   -0.3397   -0.8426 H   0  0  0  0  0  0  0  0  0  0  0  0
    1.1068   -1.8980    1.3130 H   0  0  0  0  0  0  0  0  0  0  0  0
    0.9849   -3.6294    3.0015 H   0  0  0  0  0  0  0  0  0  0  0  0
    3.3931    0.6016    3.9590 H   0  0  0  0  0  0  0  0  0  0  0  0
    3.4974   -3.1676    6.2411 H   0  0  0  0  0  0  0  0  0  0  0  0
    4.6725   -0.2571    8.1467 H   0  0  0  0  0  0  0  0  0  0  0  0
    5.8058   -0.4045   10.2815 H   0  0  0  0  0  0  0  0  0  0  0  0
    4.2952   -4.5360    7.9866 H   0  0  0  0  0  0  0  0  0  0  0  0
  1  2  1  0
  2  3  1  0
  3  4  1  0
  3  5  1  0
  5  6  1  0
  6  7  2  0
  6  8  2  0
  6  9  1  0
  9 10  2  0
 10 11  1  0
 11 12  2  0
 12 13  1  0
 12 14  1  0
 14 15  2  0
 14 16  1  0
 16 17  2  0
 16 18  1  0
 18 19  1  0
 19 20  2  0
 20 21  1  0
 21 22  2  0
 22 23  1  0
 22 24  1  0
 24 25  1  0
 24 26  2  0
 15  9  1  0
 26 19  1  0
  1 27  1  0
  1 28  1  0
  1 29  1  0
  2 30  1  0
  2 31  1  0
  3 32  1  1
  4 33  1  0
  4 34  1  0
  4 35  1  0
  5 36  1  0
 10 37  1  0
 11 38  1  0
 15 39  1  0
 18 40  1  0
 20 41  1  0
 21 42  1  0
 26 43  1  0
M  END
>  <_MoleculeID>  (239) 
smi25

>  <_InputIndex>  (239) 
25

>  <_InputSMILES>  (239) 
CC[C@@H](C)NS(=O)(=O)c1ccc(F)c(c1)C(=O)Nc1ccc(F)c(F)c1

>  <_InputInChIKey>  (239) 
BBLXLHYPDOMJMO-SNVBAGLBSA-N

>  <_SMILES>  (239) 
CC[C@@H](C)NS(=O)(=O)c1ccc(F)c(C(=O)Nc2ccc(F)c(F)c2)c1

>  <_InChIKey>  (239) 
BBLXLHYPDOMJMO-SNVBAGLBSA-N

$$$$
smi25_conf8
     RDKit          3D

 43 44  0  0  0  0  0  0  0  0999 V2000
   -0.0922   -1.3869   -2.1457 C   0  0  0  0  0  0  0  0  0  0  0  0
   -0.5084   -1.2757   -0.6868 C   0  0  0  0  0  0  0  0  0  0  0  0
    0.0000    0.0000    0.0000 C   0  0  2  0  0  0  0  0  0  0  0  0
   -0.5071    1.2768   -0.6668 C   0  0  0  0  0  0  0  0  0  0  0  0
    1.4720    0.0000    0.0000 N   0  0  0  0  0  0  0  0  0  0  0  0
    2.3521    0.7263    1.2580 S   0  0  0  0  0  6  0  0  0  0  0  0
    1.6393    1.8900    1.7491 O   0  0  0  0  0  0  0  0  0  0  0  0
    3.7418    0.8382    0.8575 O   0  0  0  0  0  0  0  0  0  0  0  0
    2.2747   -0.5269    2.5056 C   0  0  0  0  0  0  0  0  0  0  0  0
    2.8897   -0.3350    3.7453 C   0  0  0  0  0  0  0  0  0  0  0  0
    2.8319   -1.3230    4.7394 C   0  0  0  0  0  0  0  0  0  0  0  0
    2.1629   -2.5400    4.5370 C   0  0  0  0  0  0  0  0  0  0  0  0
    2.1039   -3.4899    5.4831 F   0  0  0  0  0  0  0  0  0  0  0  0
    1.5674   -2.7046    3.2714 C   0  0  0  0  0  0  0  0  0  0  0  0
    1.6157   -1.7317    2.2637 C   0  0  0  0  0  0  0  0  0  0  0  0
    0.8654   -3.9516    2.9976 C   0  0  0  0  0  0  0  0  0  0  0  0
    0.0500   -3.9617    2.0833 O   0  0  0  0  0  0  0  0  0  0  0  0
    1.1991   -4.9744    3.8703 N   0  0  0  0  0  0  0  0  0  0  0  0
    0.6590   -6.2605    3.8861 C   0  0  0  0  0  0  0  0  0  0  0  0
   -0.3346   -6.6257    2.9743 C   0  0  0  0  0  0  0  0  0  0  0  0
   -0.8819   -7.9173    2.9832 C   0  0  0  0  0  0  0  0  0  0  0  0
   -0.4637   -8.8932    3.9011 C   0  0  0  0  0  0  0  0  0  0  0  0
   -0.9830  -10.1305    3.9159 F   0  0  0  0  0  0  0  0  0  0  0  0
    0.5283   -8.4857    4.8139 C   0  0  0  0  0  0  0  0  0  0  0  0
    0.9604   -9.3759    5.7204 F   0  0  0  0  0  0  0  0  0  0  0  0
    1.0861   -7.1999    4.8238 C   0  0  0  0  0  0  0  0  0  0  0  0
   -0.5636   -2.2621   -2.6043 H   0  0  0  0  0  0  0  0  0  0  0  0
    0.9906   -1.5042   -2.2468 H   0  0  0  0  0  0  0  0  0  0  0  0
   -0.4005   -0.5017   -2.7108 H   0  0  0  0  0  0  0  0  0  0  0  0
   -0.1616   -2.1627   -0.1418 H   0  0  0  0  0  0  0  0  0  0  0  0
   -1.6048   -1.2953   -0.6384 H   0  0  0  0  0  0  0  0  0  0  0  0
   -0.3331    0.0000    1.0451 H   0  0  0  0  0  0  0  0  0  0  0  0
   -0.0816    2.1633   -0.1831 H   0  0  0  0  0  0  0  0  0  0  0  0
   -1.5960    1.3578   -0.6029 H   0  0  0  0  0  0  0  0  0  0  0  0
   -0.2204    1.3110   -1.7237 H   0  0  0  0  0  0  0  0  0  0  0  0
    1.9509   -0.3397   -0.8426 H   0  0  0  0  0  0  0  0  0  0  0  0
    3.4267    0.5875    3.9538 H   0  0  0  0  0  0  0  0  0  0  0  0
    3.3368   -1.1099    5.6784 H   0  0  0  0  0  0  0  0  0  0  0  0
    1.1408   -1.9053    1.3009 H   0  0  0  0  0  0  0  0  0  0  0  0
    1.8728   -4.7718    4.6061 H   0  0  0  0  0  0  0  0  0  0  0  0
   -0.6998   -5.9068    2.2445 H   0  0  0  0  0  0  0  0  0  0  0  0
   -1.6549   -8.1319    2.2495 H   0  0  0  0  0  0  0  0  0  0  0  0
    1.8501   -6.9316    5.5498 H   0  0  0  0  0  0  0  0  0  0  0  0
  1  2  1  0
  2  3  1  0
  3  4  1  0
  3  5  1  0
  5  6  1  0
  6  7  2  0
  6  8  2  0
  6  9  1  0
  9 10  2  0
 10 11  1  0
 11 12  2  0
 12 13  1  0
 12 14  1  0
 14 15  2  0
 14 16  1  0
 16 17  2  0
 16 18  1  0
 18 19  1  0
 19 20  2  0
 20 21  1  0
 21 22  2  0
 22 23  1  0
 22 24  1  0
 24 25  1  0
 24 26  2  0
 15  9  1  0
 26 19  1  0
  1 27  1  0
  1 28  1  0
  1 29  1  0
  2 30  1  0
  2 31  1  0
  3 32  1  1
  4 33  1  0
  4 34  1  0
  4 35  1  0
  5 36  1  0
 10 37  1  0
 11 38  1  0
 15 39  1  0
 18 40  1  0
 20 41  1  0
 21 42  1  0
 26 43  1  0
M  END
>  <_MoleculeID>  (240) 
smi25

>  <_InputIndex>  (240) 
25

>  <_InputSMILES>  (240) 
CC[C@@H](C)NS(=O)(=O)c1ccc(F)c(c1)C(=O)Nc1ccc(F)c(F)c1

>  <_InputInChIKey>  (240) 
BBLXLHYPDOMJMO-SNVBAGLBSA-N

>  <_SMILES>  (240) 
CC[C@@H](C)NS(=O)(=O)c1ccc(F)c(C(=O)Nc2ccc(F)c(F)c2)c1

>  <_InChIKey>  (240) 
BBLXLHYPDOMJMO-SNVBAGLBSA-N

$$$$
smi25_conf9
     RDKit          3D

 43 44  0  0  0  0  0  0  0  0999 V2000
   -0.0922   -1.3869   -2.1457 C   0  0  0  0  0  0  0  0  0  0  0  0
   -0.5084   -1.2757   -0.6868 C   0  0  0  0  0  0  0  0  0  0  0  0
    0.0000    0.0000    0.0000 C   0  0  2  0  0  0  0  0  0  0  0  0
   -0.5071    1.2768   -0.6668 C   0  0  0  0  0  0  0  0  0  0  0  0
    1.4720    0.0000    0.0000 N   0  0  0  0  0  0  0  0  0  0  0  0
    2.3521   -0.7263    1.2580 S   0  0  0  0  0  6  0  0  0  0  0  0
    3.7393   -0.8789    0.8637 O   0  0  0  0  0  0  0  0  0  0  0  0
    1.6068   -1.8661    1.7576 O   0  0  0  0  0  0  0  0  0  0  0  0
    2.2747    0.5269    2.5056 C   0  0  0  0  0  0  0  0  0  0  0  0
    2.8897    0.3350    3.7453 C   0  0  0  0  0  0  0  0  0  0  0  0
    2.8337    1.3238    4.7387 C   0  0  0  0  0  0  0  0  0  0  0  0
    2.1614    2.5393    4.5376 C   0  0  0  0  0  0  0  0  0  0  0  0
    2.1032    3.4895    5.4834 F   0  0  0  0  0  0  0  0  0  0  0  0
    1.5414    2.6920    3.2824 C   0  0  0  0  0  0  0  0  0  0  0  0
    1.5830    1.7159    2.2775 C   0  0  0  0  0  0  0  0  0  0  0  0
    0.8197    3.9296    3.0169 C   0  0  0  0  0  0  0  0  0  0  0  0
    0.6075    4.2301    1.8483 O   0  0  0  0  0  0  0  0  0  0  0  0
    0.5033    4.6394    4.1636 N   0  0  0  0  0  0  0  0  0  0  0  0
   -0.1396    5.8760    4.2228 C   0  0  0  0  0  0  0  0  0  0  0  0
   -0.5183    6.5373    3.0518 C   0  0  0  0  0  0  0  0  0  0  0  0
   -1.1661    7.7805    3.1031 C   0  0  0  0  0  0  0  0  0  0  0  0
   -1.4588    8.4140    4.3206 C   0  0  0  0  0  0  0  0  0  0  0  0
   -2.0777    9.6035    4.3774 F   0  0  0  0  0  0  0  0  0  0  0  0
   -1.0500    7.7258    5.4793 C   0  0  0  0  0  0  0  0  0  0  0  0
   -1.2968    8.2891    6.6720 F   0  0  0  0  0  0  0  0  0  0  0  0
   -0.3994    6.4847    5.4501 C   0  0  0  0  0  0  0  0  0  0  0  0
   -0.5636   -2.2621   -2.6043 H   0  0  0  0  0  0  0  0  0  0  0  0
    0.9906   -1.5042   -2.2468 H   0  0  0  0  0  0  0  0  0  0  0  0
   -0.4005   -0.5017   -2.7108 H   0  0  0  0  0  0  0  0  0  0  0  0
   -0.1616   -2.1627   -0.1418 H   0  0  0  0  0  0  0  0  0  0  0  0
   -1.6048   -1.2953   -0.6384 H   0  0  0  0  0  0  0  0  0  0  0  0
   -0.3331    0.0000    1.0451 H   0  0  0  0  0  0  0  0  0  0  0  0
   -0.0816    2.1633   -0.1831 H   0  0  0  0  0  0  0  0  0  0  0  0
   -1.5960    1.3578   -0.6029 H   0  0  0  0  0  0  0  0  0  0  0  0
   -0.2204    1.3110   -1.7237 H   0  0  0  0  0  0  0  0  0  0  0  0
    1.9509    0.5599   -0.7154 H   0  0  0  0  0  0  0  0  0  0  0  0
    3.4197   -0.5908    3.9567 H   0  0  0  0  0  0  0  0  0  0  0  0
    3.3295    1.1063    5.6815 H   0  0  0  0  0  0  0  0  0  0  0  0
    1.0873    1.8796    1.3234 H   0  0  0  0  0  0  0  0  0  0  0  0
    0.7996    4.2552    5.0585 H   0  0  0  0  0  0  0  0  0  0  0  0
   -0.3108    6.0941    2.0806 H   0  0  0  0  0  0  0  0  0  0  0  0
   -1.4278    8.2413    2.1538 H   0  0  0  0  0  0  0  0  0  0  0  0
   -0.1018    5.9919    6.3727 H   0  0  0  0  0  0  0  0  0  0  0  0
  1  2  1  0
  2  3  1  0
  3  4  1  0
  3  5  1  0
  5  6  1  0
  6  7  2  0
  6  8  2  0
  6  9  1  0
  9 10  2  0
 10 11  1  0
 11 12  2  0
 12 13  1  0
 12 14  1  0
 14 15  2  0
 14 16  1  0
 16 17  2  0
 16 18  1  0
 18 19  1  0
 19 20  2  0
 20 21  1  0
 21 22  2  0
 22 23  1  0
 22 24  1  0
 24 25  1  0
 24 26  2  0
 15  9  1  0
 26 19  1  0
  1 27  1  0
  1 28  1  0
  1 29  1  0
  2 30  1  0
  2 31  1  0
  3 32  1  1
  4 33  1  0
  4 34  1  0
  4 35  1  0
  5 36  1  0
 10 37  1  0
 11 38  1  0
 15 39  1  0
 18 40  1  0
 20 41  1  0
 21 42  1  0
 26 43  1  0
M  END
>  <_MoleculeID>  (241) 
smi25

>  <_InputIndex>  (241) 
25

>  <_InputSMILES>  (241) 
CC[C@@H](C)NS(=O)(=O)c1ccc(F)c(c1)C(=O)Nc1ccc(F)c(F)c1

>  <_InputInChIKey>  (241) 
BBLXLHYPDOMJMO-SNVBAGLBSA-N

>  <_SMILES>  (241) 
CC[C@@H](C)NS(=O)(=O)c1ccc(F)c(C(=O)Nc2ccc(F)c(F)c2)c1

>  <_InChIKey>  (241) 
BBLXLHYPDOMJMO-SNVBAGLBSA-N

$$$$
smi26_conf0
     RDKit          3D

 26 27  0  0  0  0  0  0  0  0999 V2000
   -4.2361    0.0024    0.2595 C   0  0  0  0  0  0  0  0  0  0  0  0
   -2.7565    0.0029    0.1215 C   0  0  0  0  0  0  0  0  0  0  0  0
   -2.1404    0.0132   -1.1285 C   0  0  0  0  0  0  0  0  0  0  0  0
   -0.7410    0.0228   -1.1832 C   0  0  0  0  0  0  0  0  0  0  0  0
    0.0000    0.0000   -0.0000 C   0  0  0  0  0  0  0  0  0  0  0  0
   -0.6013    0.0000    1.2143 N   0  0  0  0  0  0  0  0  0  0  0  0
   -1.9524   -0.0033    1.2469 C   0  0  0  0  0  0  0  0  0  0  0  0
    1.4360   -0.0000    0.0000 C   0  0  0  0  0  0  0  0  0  0  0  0
    2.1770   -0.0000    1.1835 C   0  0  0  0  0  0  0  0  0  0  0  0
    3.5764   -0.0085    1.1285 C   0  0  0  0  0  0  0  0  0  0  0  0
    4.1925    0.0053   -0.1214 C   0  0  0  0  0  0  0  0  0  0  0  0
    5.6721    0.0074   -0.2594 C   0  0  0  0  0  0  0  0  0  0  0  0
    3.3884    0.0207   -1.2468 C   0  0  0  0  0  0  0  0  0  0  0  0
    2.0373    0.0234   -1.2141 N   0  0  0  0  0  0  0  0  0  0  0  0
   -4.7120    0.0110   -0.7255 H   0  0  0  0  0  0  0  0  0  0  0  0
   -4.5782    0.8749    0.8244 H   0  0  0  0  0  0  0  0  0  0  0  0
   -4.5807   -0.8898    0.7927 H   0  0  0  0  0  0  0  0  0  0  0  0
   -2.7299    0.0248   -2.0387 H   0  0  0  0  0  0  0  0  0  0  0  0
   -0.2323    0.0482   -2.1432 H   0  0  0  0  0  0  0  0  0  0  0  0
   -2.3888   -0.0091    2.2404 H   0  0  0  0  0  0  0  0  0  0  0  0
    1.6683    0.0069    2.1437 H   0  0  0  0  0  0  0  0  0  0  0  0
    4.1659   -0.0145    2.0388 H   0  0  0  0  0  0  0  0  0  0  0  0
    6.1480   -0.0030    0.7256 H   0  0  0  0  0  0  0  0  0  0  0  0
    6.0142    0.8906   -0.8073 H   0  0  0  0  0  0  0  0  0  0  0  0
    6.0167   -0.8744   -0.8097 H   0  0  0  0  0  0  0  0  0  0  0  0
    3.8248    0.0341   -2.2402 H   0  0  0  0  0  0  0  0  0  0  0  0
  1  2  1  0
  2  3  2  0
  3  4  1  0
  4  5  2  0
  5  6  1  0
  6  7  2  0
  5  8  1  0
  8  9  2  0
  9 10  1  0
 10 11  2  0
 11 12  1  0
 11 13  1  0
 13 14  2  0
  7  2  1  0
 14  8  1  0
  1 15  1  0
  1 16  1  0
  1 17  1  0
  3 18  1  0
  4 19  1  0
  7 20  1  0
  9 21  1  0
 10 22  1  0
 12 23  1  0
 12 24  1  0
 12 25  1  0
 13 26  1  0
M  END
>  <_MoleculeID>  (242) 
smi26

>  <_InputIndex>  (242) 
26

>  <_InputSMILES>  (242) 
Cc1ccc(nc1)-c1ccc(C)cn1

>  <_InputInChIKey>  (242) 
PTRATZCAGVBFIQ-UHFFFAOYSA-N

>  <_SMILES>  (242) 
Cc1ccc(-c2ccc(C)cn2)nc1

>  <_InChIKey>  (242) 
PTRATZCAGVBFIQ-UHFFFAOYSA-N

$$$$
smi26_conf1
     RDKit          3D

 26 27  0  0  0  0  0  0  0  0999 V2000
   -4.2361    0.0024    0.2595 C   0  0  0  0  0  0  0  0  0  0  0  0
   -2.7565    0.0029    0.1215 C   0  0  0  0  0  0  0  0  0  0  0  0
   -2.1404    0.0132   -1.1285 C   0  0  0  0  0  0  0  0  0  0  0  0
   -0.7410    0.0228   -1.1832 C   0  0  0  0  0  0  0  0  0  0  0  0
    0.0000    0.0000   -0.0000 C   0  0  0  0  0  0  0  0  0  0  0  0
   -0.6013    0.0000    1.2143 N   0  0  0  0  0  0  0  0  0  0  0  0
   -1.9524   -0.0033    1.2469 C   0  0  0  0  0  0  0  0  0  0  0  0
    1.4360    0.0000   -0.0000 C   0  0  0  0  0  0  0  0  0  0  0  0
    2.1770   -0.7607   -0.9066 C   0  0  0  0  0  0  0  0  0  0  0  0
    3.5764   -0.7188   -0.8700 C   0  0  0  0  0  0  0  0  0  0  0  0
    4.1925    0.0740    0.0964 C   0  0  0  0  0  0  0  0  0  0  0  0
    5.6721    0.1611    0.2035 C   0  0  0  0  0  0  0  0  0  0  0  0
    3.3884    0.7855    0.9684 C   0  0  0  0  0  0  0  0  0  0  0  0
    2.0373    0.7625    0.9451 N   0  0  0  0  0  0  0  0  0  0  0  0
   -4.7120    0.0110   -0.7255 H   0  0  0  0  0  0  0  0  0  0  0  0
   -4.5782    0.8749    0.8244 H   0  0  0  0  0  0  0  0  0  0  0  0
   -4.5807   -0.8898    0.7927 H   0  0  0  0  0  0  0  0  0  0  0  0
   -2.7299    0.0248   -2.0387 H   0  0  0  0  0  0  0  0  0  0  0  0
   -0.2323    0.0482   -2.1432 H   0  0  0  0  0  0  0  0  0  0  0  0
   -2.3888   -0.0091    2.2404 H   0  0  0  0  0  0  0  0  0  0  0  0
    1.6683   -1.3833   -1.6378 H   0  0  0  0  0  0  0  0  0  0  0  0
    4.1659   -1.2994   -1.5712 H   0  0  0  0  0  0  0  0  0  0  0  0
    6.1480   -0.4641   -0.5578 H   0  0  0  0  0  0  0  0  0  0  0  0
    6.0142   -0.1633    1.1909 H   0  0  0  0  0  0  0  0  0  0  0  0
    6.0167    1.1903    0.0582 H   0  0  0  0  0  0  0  0  0  0  0  0
    3.8248    1.4138    1.7380 H   0  0  0  0  0  0  0  0  0  0  0  0
  1  2  1  0
  2  3  2  0
  3  4  1  0
  4  5  2  0
  5  6  1  0
  6  7  2  0
  5  8  1  0
  8  9  2  0
  9 10  1  0
 10 11  2  0
 11 12  1  0
 11 13  1  0
 13 14  2  0
  7  2  1  0
 14  8  1  0
  1 15  1  0
  1 16  1  0
  1 17  1  0
  3 18  1  0
  4 19  1  0
  7 20  1  0
  9 21  1  0
 10 22  1  0
 12 23  1  0
 12 24  1  0
 12 25  1  0
 13 26  1  0
M  END
>  <_MoleculeID>  (243) 
smi26

>  <_InputIndex>  (243) 
26

>  <_InputSMILES>  (243) 
Cc1ccc(nc1)-c1ccc(C)cn1

>  <_InputInChIKey>  (243) 
PTRATZCAGVBFIQ-UHFFFAOYSA-N

>  <_SMILES>  (243) 
Cc1ccc(-c2ccc(C)cn2)nc1

>  <_InChIKey>  (243) 
PTRATZCAGVBFIQ-UHFFFAOYSA-N

$$$$
smi26_conf2
     RDKit          3D

 26 27  0  0  0  0  0  0  0  0999 V2000
   -4.2361    0.0024    0.2595 C   0  0  0  0  0  0  0  0  0  0  0  0
   -2.7565    0.0029    0.1215 C   0  0  0  0  0  0  0  0  0  0  0  0
   -2.1404    0.0132   -1.1285 C   0  0  0  0  0  0  0  0  0  0  0  0
   -0.7410    0.0228   -1.1832 C   0  0  0  0  0  0  0  0  0  0  0  0
    0.0000    0.0000   -0.0000 C   0  0  0  0  0  0  0  0  0  0  0  0
   -0.6013    0.0000    1.2143 N   0  0  0  0  0  0  0  0  0  0  0  0
   -1.9524   -0.0033    1.2469 C   0  0  0  0  0  0  0  0  0  0  0  0
    1.4360    0.0000    0.0000 C   0  0  0  0  0  0  0  0  0  0  0  0
    2.1770    0.7607   -0.9066 C   0  0  0  0  0  0  0  0  0  0  0  0
    3.5764    0.7319   -0.8590 C   0  0  0  0  0  0  0  0  0  0  0  0
    4.1925   -0.0821    0.0896 C   0  0  0  0  0  0  0  0  0  0  0  0
    5.6721   -0.1724    0.1940 C   0  0  0  0  0  0  0  0  0  0  0  0
    3.3884   -0.8173    0.9418 C   0  0  0  0  0  0  0  0  0  0  0  0
    2.0373   -0.7984    0.9150 N   0  0  0  0  0  0  0  0  0  0  0  0
   -4.7120    0.0110   -0.7255 H   0  0  0  0  0  0  0  0  0  0  0  0
   -4.5782    0.8749    0.8244 H   0  0  0  0  0  0  0  0  0  0  0  0
   -4.5807   -0.8898    0.7927 H   0  0  0  0  0  0  0  0  0  0  0  0
   -2.7299    0.0248   -2.0387 H   0  0  0  0  0  0  0  0  0  0  0  0
   -0.2323    0.0482   -2.1432 H   0  0  0  0  0  0  0  0  0  0  0  0
   -2.3888   -0.0091    2.2404 H   0  0  0  0  0  0  0  0  0  0  0  0
    1.6683    1.3727   -1.6466 H   0  0  0  0  0  0  0  0  0  0  0  0
    4.1659    1.3217   -1.5525 H   0  0  0  0  0  0  0  0  0  0  0  0
    6.1480    0.4687   -0.5539 H   0  0  0  0  0  0  0  0  0  0  0  0
    6.0142   -1.2012    0.0460 H   0  0  0  0  0  0  0  0  0  0  0  0
    6.0167    0.1493    1.1823 H   0  0  0  0  0  0  0  0  0  0  0  0
    3.8248   -1.4661    1.6941 H   0  0  0  0  0  0  0  0  0  0  0  0
  1  2  1  0
  2  3  2  0
  3  4  1  0
  4  5  2  0
  5  6  1  0
  6  7  2  0
  5  8  1  0
  8  9  2  0
  9 10  1  0
 10 11  2  0
 11 12  1  0
 11 13  1  0
 13 14  2  0
  7  2  1  0
 14  8  1  0
  1 15  1  0
  1 16  1  0
  1 17  1  0
  3 18  1  0
  4 19  1  0
  7 20  1  0
  9 21  1  0
 10 22  1  0
 12 23  1  0
 12 24  1  0
 12 25  1  0
 13 26  1  0
M  END
>  <_MoleculeID>  (244) 
smi26

>  <_InputIndex>  (244) 
26

>  <_InputSMILES>  (244) 
Cc1ccc(nc1)-c1ccc(C)cn1

>  <_InputInChIKey>  (244) 
PTRATZCAGVBFIQ-UHFFFAOYSA-N

>  <_SMILES>  (244) 
Cc1ccc(-c2ccc(C)cn2)nc1

>  <_InChIKey>  (244) 
PTRATZCAGVBFIQ-UHFFFAOYSA-N

$$$$
smi27_conf0
     RDKit          3D

 66 69  0  0  0  0  0  0  0  0999 V2000
   -0.5649   -0.0000    1.4124 C   0  0  0  0  0  0  0  0  0  0  0  0
    0.0000    0.0000    0.0000 C   0  0  0  0  0  0  0  0  0  0  0  0
    1.4360    0.0000    0.0000 N   0  0  0  0  0  0  0  0  0  0  0  0
    2.1778    1.1542    0.2035 C   0  0  0  0  0  0  0  0  0  0  0  0
    1.6766    2.2597    0.3984 O   0  0  0  0  0  0  0  0  0  0  0  0
    3.6549    0.9810    0.1303 C   0  0  0  0  0  0  0  0  0  0  0  0
    4.4757    1.3499    1.2945 C   0  0  0  0  0  0  0  0  0  0  0  0
    5.6948    1.0556    0.8418 C   0  0  0  0  0  0  0  0  0  0  0  0
    6.9826    1.1829    1.4990 C   0  0  0  0  0  0  0  0  0  0  0  0
    8.0533    0.7979    0.7738 C   0  0  0  0  0  0  0  0  0  0  0  0
    7.9456    0.3095   -0.5187 N   0  0  0  0  0  0  0  0  0  0  0  0
    9.1454   -0.0809   -1.2251 C   0  0  0  0  0  0  0  0  0  0  0  0
    6.7209    0.1858   -1.1506 C   0  0  0  0  0  0  0  0  0  0  0  0
    6.7734   -0.3128   -2.4288 O   0  0  0  0  0  0  0  0  0  0  0  0
    5.5934    0.5409   -0.5172 C   0  0  0  0  0  0  0  0  0  0  0  0
    4.2856    0.5181   -0.9087 N   0  0  0  0  0  0  0  0  0  0  0  0
    7.0912    1.6940    2.8505 C   0  0  0  0  0  0  0  0  0  0  0  0
    6.6600    2.9867    3.1586 C   0  0  0  0  0  0  0  0  0  0  0  0
    6.7608    3.4882    4.4648 C   0  0  0  0  0  0  0  0  0  0  0  0
    7.2969    2.7242    5.5128 C   0  0  0  0  0  0  0  0  0  0  0  0
    7.7344    1.4321    5.1629 C   0  0  0  0  0  0  0  0  0  0  0  0
    7.6453    0.9129    3.8640 C   0  0  0  0  0  0  0  0  0  0  0  0
    8.0913   -0.3581    3.5833 O   0  0  0  0  0  0  0  0  0  0  0  0
    8.6201   -1.0774    4.6304 C   0  0  0  0  0  0  0  0  0  0  0  0
    7.8049   -1.8864    5.4211 C   0  0  0  0  0  0  0  0  0  0  0  0
    6.3489   -1.9727    5.1366 C   0  0  0  0  0  0  0  0  0  0  0  0
    8.3704   -2.6051    6.4832 C   0  0  0  0  0  0  0  0  0  0  0  0
    9.7414   -2.5659    6.8026 C   0  0  0  0  0  0  0  0  0  0  0  0
   10.2572   -3.2670    7.8241 F   0  0  0  0  0  0  0  0  0  0  0  0
   10.5345   -1.7554    5.9757 C   0  0  0  0  0  0  0  0  0  0  0  0
    9.9881   -1.0259    4.9094 C   0  0  0  0  0  0  0  0  0  0  0  0
   10.8922   -0.1952    4.0723 C   0  0  0  0  0  0  0  0  0  0  0  0
    6.2829    4.8764    4.6946 C   0  0  0  0  0  0  0  0  0  0  0  0
    7.0678    5.9108    3.8263 C   0  0  0  0  0  0  0  0  0  0  0  0
    4.7162    4.9990    4.5177 C   0  0  0  0  0  0  0  0  0  0  0  0
    6.5643    5.2106    6.0698 O   0  0  0  0  0  0  0  0  0  0  0  0
   -1.6586   -0.0202    1.3838 H   0  0  0  0  0  0  0  0  0  0  0  0
   -0.2551    0.8896    1.9689 H   0  0  0  0  0  0  0  0  0  0  0  0
   -0.2206   -0.8774    1.9699 H   0  0  0  0  0  0  0  0  0  0  0  0
   -0.3639   -0.8973   -0.5131 H   0  0  0  0  0  0  0  0  0  0  0  0
   -0.3822    0.8403   -0.5775 H   0  0  0  0  0  0  0  0  0  0  0  0
    1.8977   -0.8737   -0.2272 H   0  0  0  0  0  0  0  0  0  0  0  0
    4.1450    1.7457    2.2358 H   0  0  0  0  0  0  0  0  0  0  0  0
    9.0685    0.8423    1.1468 H   0  0  0  0  0  0  0  0  0  0  0  0
   10.0160    0.0809   -0.5847 H   0  0  0  0  0  0  0  0  0  0  0  0
    9.2296    0.5292   -2.1279 H   0  0  0  0  0  0  0  0  0  0  0  0
    9.0653   -1.1398   -1.4833 H   0  0  0  0  0  0  0  0  0  0  0  0
    5.8743   -0.3648   -2.7920 H   0  0  0  0  0  0  0  0  0  0  0  0
    6.2415    3.6242    2.3833 H   0  0  0  0  0  0  0  0  0  0  0  0
    7.3776    3.1058    6.5220 H   0  0  0  0  0  0  0  0  0  0  0  0
    8.1641    0.8051    5.9431 H   0  0  0  0  0  0  0  0  0  0  0  0
    5.8589   -2.6416    5.8502 H   0  0  0  0  0  0  0  0  0  0  0  0
    6.1681   -2.3439    4.1233 H   0  0  0  0  0  0  0  0  0  0  0  0
    5.8742   -0.9891    5.2156 H   0  0  0  0  0  0  0  0  0  0  0  0
    7.7170   -3.2267    7.0941 H   0  0  0  0  0  0  0  0  0  0  0  0
   11.6071   -1.6734    6.1328 H   0  0  0  0  0  0  0  0  0  0  0  0
   11.9235   -0.2747    4.4286 H   0  0  0  0  0  0  0  0  0  0  0  0
   10.5914    0.8566    4.0940 H   0  0  0  0  0  0  0  0  0  0  0  0
   10.8704   -0.5216    3.0273 H   0  0  0  0  0  0  0  0  0  0  0  0
    6.7446    6.9313    4.0590 H   0  0  0  0  0  0  0  0  0  0  0  0
    6.9087    5.7252    2.7594 H   0  0  0  0  0  0  0  0  0  0  0  0
    8.1412    5.8576    4.0393 H   0  0  0  0  0  0  0  0  0  0  0  0
    4.3854    6.0157    4.7551 H   0  0  0  0  0  0  0  0  0  0  0  0
    4.2015    4.3203    5.2065 H   0  0  0  0  0  0  0  0  0  0  0  0
    4.4235    4.7581    3.4912 H   0  0  0  0  0  0  0  0  0  0  0  0
    6.2416    6.1144    6.2278 H   0  0  0  0  0  0  0  0  0  0  0  0
  1  2  1  0
  2  3  1  0
  3  4  1  0
  4  5  2  0
  4  6  1  0
  6  7  1  0
  7  8  2  0
  8  9  1  0
  9 10  2  0
 10 11  1  0
 11 12  1  0
 11 13  1  0
 13 14  1  0
 13 15  2  0
 15 16  1  0
  9 17  1  0
 17 18  2  0
 18 19  1  0
 19 20  2  0
 20 21  1  0
 21 22  2  0
 22 23  1  0
 23 24  1  0
 24 25  2  0
 25 26  1  0
 25 27  1  0
 27 28  2  0
 28 29  1  0
 28 30  1  0
 30 31  2  0
 31 32  1  0
 19 33  1  0
 33 34  1  0
 33 35  1  0
 33 36  1  0
 16  6  2  0
 22 17  1  0
 31 24  1  0
 15  8  1  0
  1 37  1  0
  1 38  1  0
  1 39  1  0
  2 40  1  0
  2 41  1  0
  3 42  1  0
  7 43  1  0
 10 44  1  0
 12 45  1  0
 12 46  1  0
 12 47  1  0
 14 48  1  0
 18 49  1  0
 20 50  1  0
 21 51  1  0
 26 52  1  0
 26 53  1  0
 26 54  1  0
 27 55  1  0
 30 56  1  0
 32 57  1  0
 32 58  1  0
 32 59  1  0
 34 60  1  0
 34 61  1  0
 34 62  1  0
 35 63  1  0
 35 64  1  0
 35 65  1  0
 36 66  1  0
M  END
>  <_MoleculeID>  (245) 
smi27

>  <_InputIndex>  (245) 
27

>  <_InputSMILES>  (245) 
CCNC(=O)c1cc2c(cn(C)c(O)c2n1)-c1cc(ccc1Oc1c(C)cc(F)cc1C)C(C)(C)O

>  <_InputInChIKey>  (245) 
LQPFCYWRBQRRGE-UHFFFAOYSA-N

>  <_SMILES>  (245) 
CCNC(=O)c1cc2c(-c3cc(C(C)(C)O)ccc3Oc3c(C)cc(F)cc3C)cn(C)c(O)c-2n1

>  <_InChIKey>  (245) 
LQPFCYWRBQRRGE-UHFFFAOYSA-N

$$$$
smi27_conf1
     RDKit          3D

 66 69  0  0  0  0  0  0  0  0999 V2000
   -0.5649   -0.0000    1.4124 C   0  0  0  0  0  0  0  0  0  0  0  0
    0.0000    0.0000    0.0000 C   0  0  0  0  0  0  0  0  0  0  0  0
    1.4360    0.0000    0.0000 N   0  0  0  0  0  0  0  0  0  0  0  0
    2.1778    1.1542    0.2035 C   0  0  0  0  0  0  0  0  0  0  0  0
    1.6766    2.2597    0.3984 O   0  0  0  0  0  0  0  0  0  0  0  0
    3.6549    0.9810    0.1303 C   0  0  0  0  0  0  0  0  0  0  0  0
    4.4085    1.7071   -0.9041 C   0  0  0  0  0  0  0  0  0  0  0  0
    5.6495    1.2965   -0.6412 C   0  0  0  0  0  0  0  0  0  0  0  0
    6.8971    1.6376   -1.2997 C   0  0  0  0  0  0  0  0  0  0  0  0
    8.0053    1.0533   -0.7985 C   0  0  0  0  0  0  0  0  0  0  0  0
    7.9699    0.1802    0.2771 N   0  0  0  0  0  0  0  0  0  0  0  0
    9.2057   -0.4020    0.7510 C   0  0  0  0  0  0  0  0  0  0  0  0
    6.7838   -0.1489    0.9090 C   0  0  0  0  0  0  0  0  0  0  0  0
    6.9074   -1.0256    1.9584 O   0  0  0  0  0  0  0  0  0  0  0  0
    5.6241    0.3775    0.4887 C   0  0  0  0  0  0  0  0  0  0  0  0
    4.3418    0.2193    0.9300 N   0  0  0  0  0  0  0  0  0  0  0  0
    6.9301    2.5510   -2.4241 C   0  0  0  0  0  0  0  0  0  0  0  0
    7.5662    3.7901   -2.3153 C   0  0  0  0  0  0  0  0  0  0  0  0
    7.6032    4.6793   -3.3995 C   0  0  0  0  0  0  0  0  0  0  0  0
    7.0065    4.3709   -4.6318 C   0  0  0  0  0  0  0  0  0  0  0  0
    6.3623    3.1204   -4.7006 C   0  0  0  0  0  0  0  0  0  0  0  0
    6.3114    2.2188   -3.6288 C   0  0  0  0  0  0  0  0  0  0  0  0
    5.6652    1.0108   -3.7568 O   0  0  0  0  0  0  0  0  0  0  0  0
    5.0825    0.7428   -4.9742 C   0  0  0  0  0  0  0  0  0  0  0  0
    5.8012    0.0986   -5.9805 C   0  0  0  0  0  0  0  0  0  0  0  0
    7.2125   -0.3009   -5.7420 C   0  0  0  0  0  0  0  0  0  0  0  0
    5.1830   -0.1583   -7.2119 C   0  0  0  0  0  0  0  0  0  0  0  0
    3.8500    0.1944   -7.4985 C   0  0  0  0  0  0  0  0  0  0  0  0
    3.2817   -0.0664   -8.6859 F   0  0  0  0  0  0  0  0  0  0  0  0
    3.1517    0.8254   -6.4574 C   0  0  0  0  0  0  0  0  0  0  0  0
    3.7525    1.0942   -5.2186 C   0  0  0  0  0  0  0  0  0  0  0  0
    2.9471    1.7586   -4.1613 C   0  0  0  0  0  0  0  0  0  0  0  0
    8.2963    5.9764   -3.1866 C   0  0  0  0  0  0  0  0  0  0  0  0
    7.6381    6.8034   -2.0365 C   0  0  0  0  0  0  0  0  0  0  0  0
    9.8536    5.7884   -2.9856 C   0  0  0  0  0  0  0  0  0  0  0  0
    8.1328    6.7586   -4.3881 O   0  0  0  0  0  0  0  0  0  0  0  0
   -1.6586   -0.0202    1.3838 H   0  0  0  0  0  0  0  0  0  0  0  0
   -0.2551    0.8896    1.9689 H   0  0  0  0  0  0  0  0  0  0  0  0
   -0.2206   -0.8774    1.9699 H   0  0  0  0  0  0  0  0  0  0  0  0
   -0.3639   -0.8973   -0.5131 H   0  0  0  0  0  0  0  0  0  0  0  0
   -0.3822    0.8403   -0.5775 H   0  0  0  0  0  0  0  0  0  0  0  0
    1.8977   -0.8737   -0.2272 H   0  0  0  0  0  0  0  0  0  0  0  0
    4.0263    2.3772   -1.6505 H   0  0  0  0  0  0  0  0  0  0  0  0
    8.9969    1.2232   -1.1980 H   0  0  0  0  0  0  0  0  0  0  0  0
   10.0383   -0.0375    0.1441 H   0  0  0  0  0  0  0  0  0  0  0  0
    9.1315   -1.4890    0.6657 H   0  0  0  0  0  0  0  0  0  0  0  0
    9.3489   -0.1076    1.7937 H   0  0  0  0  0  0  0  0  0  0  0  0
    6.0310   -1.1986    2.3394 H   0  0  0  0  0  0  0  0  0  0  0  0
    8.0402    4.0826   -1.3812 H   0  0  0  0  0  0  0  0  0  0  0  0
    7.0314    5.0528   -5.4713 H   0  0  0  0  0  0  0  0  0  0  0  0
    5.8791    2.8410   -5.6360 H   0  0  0  0  0  0  0  0  0  0  0  0
    7.6279   -0.7859   -6.6303 H   0  0  0  0  0  0  0  0  0  0  0  0
    7.2878   -0.9903   -4.8957 H   0  0  0  0  0  0  0  0  0  0  0  0
    7.8341    0.5707   -5.5120 H   0  0  0  0  0  0  0  0  0  0  0  0
    5.7621   -0.6565   -7.9883 H   0  0  0  0  0  0  0  0  0  0  0  0
    2.1124    1.1209   -6.5774 H   0  0  0  0  0  0  0  0  0  0  0  0
    1.9333    1.9574   -4.5211 H   0  0  0  0  0  0  0  0  0  0  0  0
    3.4047    2.7041   -3.8549 H   0  0  0  0  0  0  0  0  0  0  0  0
    2.8707    1.1267   -3.2702 H   0  0  0  0  0  0  0  0  0  0  0  0
    8.1228    7.7810   -1.9405 H   0  0  0  0  0  0  0  0  0  0  0  0
    7.7177    6.2750   -1.0812 H   0  0  0  0  0  0  0  0  0  0  0  0
    6.5800    6.9894   -2.2518 H   0  0  0  0  0  0  0  0  0  0  0  0
   10.3454    6.7628   -2.8953 H   0  0  0  0  0  0  0  0  0  0  0  0
   10.2907    5.2826   -3.8535 H   0  0  0  0  0  0  0  0  0  0  0  0
   10.0585    5.1995   -2.0864 H   0  0  0  0  0  0  0  0  0  0  0  0
    8.5958    7.6039   -4.2576 H   0  0  0  0  0  0  0  0  0  0  0  0
  1  2  1  0
  2  3  1  0
  3  4  1  0
  4  5  2  0
  4  6  1  0
  6  7  1  0
  7  8  2  0
  8  9  1  0
  9 10  2  0
 10 11  1  0
 11 12  1  0
 11 13  1  0
 13 14  1  0
 13 15  2  0
 15 16  1  0
  9 17  1  0
 17 18  2  0
 18 19  1  0
 19 20  2  0
 20 21  1  0
 21 22  2  0
 22 23  1  0
 23 24  1  0
 24 25  2  0
 25 26  1  0
 25 27  1  0
 27 28  2  0
 28 29  1  0
 28 30  1  0
 30 31  2  0
 31 32  1  0
 19 33  1  0
 33 34  1  0
 33 35  1  0
 33 36  1  0
 16  6  2  0
 22 17  1  0
 31 24  1  0
 15  8  1  0
  1 37  1  0
  1 38  1  0
  1 39  1  0
  2 40  1  0
  2 41  1  0
  3 42  1  0
  7 43  1  0
 10 44  1  0
 12 45  1  0
 12 46  1  0
 12 47  1  0
 14 48  1  0
 18 49  1  0
 20 50  1  0
 21 51  1  0
 26 52  1  0
 26 53  1  0
 26 54  1  0
 27 55  1  0
 30 56  1  0
 32 57  1  0
 32 58  1  0
 32 59  1  0
 34 60  1  0
 34 61  1  0
 34 62  1  0
 35 63  1  0
 35 64  1  0
 35 65  1  0
 36 66  1  0
M  END
>  <_MoleculeID>  (246) 
smi27

>  <_InputIndex>  (246) 
27

>  <_InputSMILES>  (246) 
CCNC(=O)c1cc2c(cn(C)c(O)c2n1)-c1cc(ccc1Oc1c(C)cc(F)cc1C)C(C)(C)O

>  <_InputInChIKey>  (246) 
LQPFCYWRBQRRGE-UHFFFAOYSA-N

>  <_SMILES>  (246) 
CCNC(=O)c1cc2c(-c3cc(C(C)(C)O)ccc3Oc3c(C)cc(F)cc3C)cn(C)c(O)c-2n1

>  <_InChIKey>  (246) 
LQPFCYWRBQRRGE-UHFFFAOYSA-N

$$$$
smi27_conf2
     RDKit          3D

 66 69  0  0  0  0  0  0  0  0999 V2000
   -0.5649   -0.0000    1.4124 C   0  0  0  0  0  0  0  0  0  0  0  0
    0.0000    0.0000    0.0000 C   0  0  0  0  0  0  0  0  0  0  0  0
    1.4360    0.0000    0.0000 N   0  0  0  0  0  0  0  0  0  0  0  0
    2.1778   -1.1542    0.2035 C   0  0  0  0  0  0  0  0  0  0  0  0
    1.6766   -2.2597    0.3984 O   0  0  0  0  0  0  0  0  0  0  0  0
    3.6549   -0.9664    0.2131 C   0  0  0  0  0  0  0  0  0  0  0  0
    4.4085   -1.2949    1.4335 C   0  0  0  0  0  0  0  0  0  0  0  0
    5.6495   -0.9990    1.0459 C   0  0  0  0  0  0  0  0  0  0  0  0
    6.8971   -1.0943    1.7814 C   0  0  0  0  0  0  0  0  0  0  0  0
    8.0053   -0.7167    1.1106 C   0  0  0  0  0  0  0  0  0  0  0  0
    7.9699   -0.2641   -0.1987 N   0  0  0  0  0  0  0  0  0  0  0  0
    9.2057    0.1208   -0.8432 C   0  0  0  0  0  0  0  0  0  0  0  0
    6.7838   -0.1710   -0.9051 C   0  0  0  0  0  0  0  0  0  0  0  0
    6.9074    0.2940   -2.1911 O   0  0  0  0  0  0  0  0  0  0  0  0
    5.6241   -0.5219   -0.3301 C   0  0  0  0  0  0  0  0  0  0  0  0
    4.3418   -0.5242   -0.7989 N   0  0  0  0  0  0  0  0  0  0  0  0
    6.9301   -1.5680    3.1504 C   0  0  0  0  0  0  0  0  0  0  0  0
    7.3369   -0.7227    4.1858 C   0  0  0  0  0  0  0  0  0  0  0  0
    7.3704   -1.1735    5.5136 C   0  0  0  0  0  0  0  0  0  0  0  0
    7.0036   -2.4828    5.8614 C   0  0  0  0  0  0  0  0  0  0  0  0
    6.6131   -3.3106    4.7911 C   0  0  0  0  0  0  0  0  0  0  0  0
    6.5751   -2.8810    3.4576 C   0  0  0  0  0  0  0  0  0  0  0  0
    6.1853   -3.7380    2.4541 O   0  0  0  0  0  0  0  0  0  0  0  0
    5.8412   -5.0170    2.8269 C   0  0  0  0  0  0  0  0  0  0  0  0
    4.5250   -5.3299    3.1643 C   0  0  0  0  0  0  0  0  0  0  0  0
    3.4804   -4.2737    3.1263 C   0  0  0  0  0  0  0  0  0  0  0  0
    4.2042   -6.6405    3.5436 C   0  0  0  0  0  0  0  0  0  0  0  0
    5.1477   -7.6845    3.5983 C   0  0  0  0  0  0  0  0  0  0  0  0
    4.8124   -8.9319    3.9623 F   0  0  0  0  0  0  0  0  0  0  0  0
    6.4585   -7.3379    3.2358 C   0  0  0  0  0  0  0  0  0  0  0  0
    6.8012   -6.0318    2.8559 C   0  0  0  0  0  0  0  0  0  0  0  0
    8.2087   -5.7420    2.4778 C   0  0  0  0  0  0  0  0  0  0  0  0
    7.8237   -0.2047    6.5452 C   0  0  0  0  0  0  0  0  0  0  0  0
    9.2793    0.2926    6.2735 C   0  0  0  0  0  0  0  0  0  0  0  0
    6.7991    0.9858    6.7287 C   0  0  0  0  0  0  0  0  0  0  0  0
    7.8667   -0.9025    7.8074 O   0  0  0  0  0  0  0  0  0  0  0  0
   -1.6586   -0.0202    1.3838 H   0  0  0  0  0  0  0  0  0  0  0  0
   -0.2551    0.8896    1.9689 H   0  0  0  0  0  0  0  0  0  0  0  0
   -0.2206   -0.8774    1.9699 H   0  0  0  0  0  0  0  0  0  0  0  0
   -0.3639   -0.8973   -0.5131 H   0  0  0  0  0  0  0  0  0  0  0  0
   -0.3822    0.8403   -0.5775 H   0  0  0  0  0  0  0  0  0  0  0  0
    1.8977    0.8987   -0.0853 H   0  0  0  0  0  0  0  0  0  0  0  0
    4.0263   -1.6693    2.3640 H   0  0  0  0  0  0  0  0  0  0  0  0
    8.9969   -0.7397    1.5442 H   0  0  0  0  0  0  0  0  0  0  0  0
   10.0383   -0.0140   -0.1483 H   0  0  0  0  0  0  0  0  0  0  0  0
    9.1315    1.1715   -1.1348 H   0  0  0  0  0  0  0  0  0  0  0  0
    9.3489   -0.5123   -1.7224 H   0  0  0  0  0  0  0  0  0  0  0  0
    6.0310    0.3262   -2.6082 H   0  0  0  0  0  0  0  0  0  0  0  0
    7.6373    0.3004    3.9719 H   0  0  0  0  0  0  0  0  0  0  0  0
    7.0278   -2.8362    6.8836 H   0  0  0  0  0  0  0  0  0  0  0  0
    6.3261   -4.3378    5.0128 H   0  0  0  0  0  0  0  0  0  0  0  0
    2.5108   -4.6840    3.4236 H   0  0  0  0  0  0  0  0  0  0  0  0
    3.3902   -3.8464    2.1231 H   0  0  0  0  0  0  0  0  0  0  0  0
    3.7244   -3.4550    3.8113 H   0  0  0  0  0  0  0  0  0  0  0  0
    3.1721   -6.8647    3.8101 H   0  0  0  0  0  0  0  0  0  0  0  0
    7.2538   -8.0791    3.2310 H   0  0  0  0  0  0  0  0  0  0  0  0
    8.8191   -6.6467    2.5538 H   0  0  0  0  0  0  0  0  0  0  0  0
    8.6383   -4.9710    3.1244 H   0  0  0  0  0  0  0  0  0  0  0  0
    8.2717   -5.3785    1.4467 H   0  0  0  0  0  0  0  0  0  0  0  0
    9.6160    0.9539    7.0793 H   0  0  0  0  0  0  0  0  0  0  0  0
    9.3353    0.8358    5.3249 H   0  0  0  0  0  0  0  0  0  0  0  0
    9.9758   -0.5526    6.2399 H   0  0  0  0  0  0  0  0  0  0  0  0
    7.1265    1.6477    7.5375 H   0  0  0  0  0  0  0  0  0  0  0  0
    5.8120    0.5989    7.0044 H   0  0  0  0  0  0  0  0  0  0  0  0
    6.7118    1.5659    5.8050 H   0  0  0  0  0  0  0  0  0  0  0  0
    8.1511   -0.2684    8.4879 H   0  0  0  0  0  0  0  0  0  0  0  0
  1  2  1  0
  2  3  1  0
  3  4  1  0
  4  5  2  0
  4  6  1  0
  6  7  1  0
  7  8  2  0
  8  9  1  0
  9 10  2  0
 10 11  1  0
 11 12  1  0
 11 13  1  0
 13 14  1  0
 13 15  2  0
 15 16  1  0
  9 17  1  0
 17 18  2  0
 18 19  1  0
 19 20  2  0
 20 21  1  0
 21 22  2  0
 22 23  1  0
 23 24  1  0
 24 25  2  0
 25 26  1  0
 25 27  1  0
 27 28  2  0
 28 29  1  0
 28 30  1  0
 30 31  2  0
 31 32  1  0
 19 33  1  0
 33 34  1  0
 33 35  1  0
 33 36  1  0
 16  6  2  0
 22 17  1  0
 31 24  1  0
 15  8  1  0
  1 37  1  0
  1 38  1  0
  1 39  1  0
  2 40  1  0
  2 41  1  0
  3 42  1  0
  7 43  1  0
 10 44  1  0
 12 45  1  0
 12 46  1  0
 12 47  1  0
 14 48  1  0
 18 49  1  0
 20 50  1  0
 21 51  1  0
 26 52  1  0
 26 53  1  0
 26 54  1  0
 27 55  1  0
 30 56  1  0
 32 57  1  0
 32 58  1  0
 32 59  1  0
 34 60  1  0
 34 61  1  0
 34 62  1  0
 35 63  1  0
 35 64  1  0
 35 65  1  0
 36 66  1  0
M  END
>  <_MoleculeID>  (247) 
smi27

>  <_InputIndex>  (247) 
27

>  <_InputSMILES>  (247) 
CCNC(=O)c1cc2c(cn(C)c(O)c2n1)-c1cc(ccc1Oc1c(C)cc(F)cc1C)C(C)(C)O

>  <_InputInChIKey>  (247) 
LQPFCYWRBQRRGE-UHFFFAOYSA-N

>  <_SMILES>  (247) 
CCNC(=O)c1cc2c(-c3cc(C(C)(C)O)ccc3Oc3c(C)cc(F)cc3C)cn(C)c(O)c-2n1

>  <_InChIKey>  (247) 
LQPFCYWRBQRRGE-UHFFFAOYSA-N

$$$$
smi27_conf3
     RDKit          3D

 66 69  0  0  0  0  0  0  0  0999 V2000
   -0.5649   -0.0000    1.4124 C   0  0  0  0  0  0  0  0  0  0  0  0
    0.0000    0.0000    0.0000 C   0  0  0  0  0  0  0  0  0  0  0  0
    1.4360   -0.0000    0.0000 N   0  0  0  0  0  0  0  0  0  0  0  0
    2.1778   -0.0000   -1.1721 C   0  0  0  0  0  0  0  0  0  0  0  0
    1.6766   -0.0000   -2.2945 O   0  0  0  0  0  0  0  0  0  0  0  0
    3.6549   -0.0421   -0.9887 C   0  0  0  0  0  0  0  0  0  0  0  0
    4.2507   -1.1649   -0.2475 C   0  0  0  0  0  0  0  0  0  0  0  0
    5.5430   -0.8418   -0.3043 C   0  0  0  0  0  0  0  0  0  0  0  0
    6.6963   -1.5364    0.2381 C   0  0  0  0  0  0  0  0  0  0  0  0
    7.8924   -0.9536    0.0143 C   0  0  0  0  0  0  0  0  0  0  0  0
    8.0270    0.2336   -0.6877 N   0  0  0  0  0  0  0  0  0  0  0  0
    9.3476    0.7897   -0.8820 C   0  0  0  0  0  0  0  0  0  0  0  0
    6.9316    0.9005   -1.2072 C   0  0  0  0  0  0  0  0  0  0  0  0
    7.2223    2.0629   -1.8776 O   0  0  0  0  0  0  0  0  0  0  0  0
    5.6963    0.4057   -1.0407 C   0  0  0  0  0  0  0  0  0  0  0  0
    4.4738    0.8594   -1.4452 N   0  0  0  0  0  0  0  0  0  0  0  0
    6.5515   -2.7776    0.9716 C   0  0  0  0  0  0  0  0  0  0  0  0
    5.8056   -2.8230    2.1521 C   0  0  0  0  0  0  0  0  0  0  0  0
    5.6599   -4.0209    2.8673 C   0  0  0  0  0  0  0  0  0  0  0  0
    6.2529   -5.2179    2.4370 C   0  0  0  0  0  0  0  0  0  0  0  0
    7.0088   -5.1316    1.2519 C   0  0  0  0  0  0  0  0  0  0  0  0
    7.1691   -3.9447    0.5239 C   0  0  0  0  0  0  0  0  0  0  0  0
    7.9217   -3.9231   -0.6279 O   0  0  0  0  0  0  0  0  0  0  0  0
    8.4974   -5.1106   -1.0174 C   0  0  0  0  0  0  0  0  0  0  0  0
    7.8177   -5.9873   -1.8622 C   0  0  0  0  0  0  0  0  0  0  0  0
    6.4559   -5.6418   -2.3463 C   0  0  0  0  0  0  0  0  0  0  0  0
    8.4274   -7.1915   -2.2398 C   0  0  0  0  0  0  0  0  0  0  0  0
    9.7145   -7.5750   -1.8158 C   0  0  0  0  0  0  0  0  0  0  0  0
   10.2759   -8.7333   -2.1952 F   0  0  0  0  0  0  0  0  0  0  0  0
   10.3759   -6.6613   -0.9807 C   0  0  0  0  0  0  0  0  0  0  0  0
    9.7826   -5.4521   -0.5889 C   0  0  0  0  0  0  0  0  0  0  0  0
   10.5479   -4.5310    0.2910 C   0  0  0  0  0  0  0  0  0  0  0  0
    4.8544   -3.9697    4.1150 C   0  0  0  0  0  0  0  0  0  0  0  0
    5.4603   -2.9745    5.1555 C   0  0  0  0  0  0  0  0  0  0  0  0
    3.3267   -3.6860    3.8210 C   0  0  0  0  0  0  0  0  0  0  0  0
    4.9155   -5.2757    4.7255 O   0  0  0  0  0  0  0  0  0  0  0  0
   -1.6586   -0.0202    1.3838 H   0  0  0  0  0  0  0  0  0  0  0  0
   -0.2551    0.8896    1.9689 H   0  0  0  0  0  0  0  0  0  0  0  0
   -0.2206   -0.8774    1.9699 H   0  0  0  0  0  0  0  0  0  0  0  0
   -0.3639   -0.8973   -0.5131 H   0  0  0  0  0  0  0  0  0  0  0  0
   -0.3822    0.8403   -0.5775 H   0  0  0  0  0  0  0  0  0  0  0  0
    1.8977   -0.0720    0.8999 H   0  0  0  0  0  0  0  0  0  0  0  0
    3.7474   -1.9994    0.2023 H   0  0  0  0  0  0  0  0  0  0  0  0
    8.8285   -1.3688    0.3650 H   0  0  0  0  0  0  0  0  0  0  0  0
   10.0906    0.1412   -0.4113 H   0  0  0  0  0  0  0  0  0  0  0  0
    9.3764    1.7816   -0.4240 H   0  0  0  0  0  0  0  0  0  0  0  0
    9.5396    0.8570   -1.9558 H   0  0  0  0  0  0  0  0  0  0  0  0
    6.3994    2.4607   -2.2056 H   0  0  0  0  0  0  0  0  0  0  0  0
    5.3290   -1.9232    2.5342 H   0  0  0  0  0  0  0  0  0  0  0  0
    6.1444   -6.1447    2.9845 H   0  0  0  0  0  0  0  0  0  0  0  0
    7.4933   -6.0349    0.8833 H   0  0  0  0  0  0  0  0  0  0  0  0
    6.0662   -6.4357   -2.9903 H   0  0  0  0  0  0  0  0  0  0  0  0
    6.4655   -4.7035   -2.9091 H   0  0  0  0  0  0  0  0  0  0  0  0
    5.7616   -5.5155   -1.5090 H   0  0  0  0  0  0  0  0  0  0  0  0
    7.8786   -7.8668   -2.8950 H   0  0  0  0  0  0  0  0  0  0  0  0
   11.3800   -6.8609   -0.6149 H   0  0  0  0  0  0  0  0  0  0  0  0
   11.5299   -4.9531    0.5244 H   0  0  0  0  0  0  0  0  0  0  0  0
   10.0119   -4.3459    1.2267 H   0  0  0  0  0  0  0  0  0  0  0  0
   10.7042   -3.5624   -0.1952 H   0  0  0  0  0  0  0  0  0  0  0  0
    4.8892   -3.0010    6.0899 H   0  0  0  0  0  0  0  0  0  0  0  0
    5.4532   -1.9514    4.7668 H   0  0  0  0  0  0  0  0  0  0  0  0
    6.4910   -3.2535    5.4013 H   0  0  0  0  0  0  0  0  0  0  0  0
    2.7486   -3.7173    4.7507 H   0  0  0  0  0  0  0  0  0  0  0  0
    2.9178   -4.4559    3.1576 H   0  0  0  0  0  0  0  0  0  0  0  0
    3.1992   -2.7050    3.3534 H   0  0  0  0  0  0  0  0  0  0  0  0
    4.3791   -5.2499    5.5363 H   0  0  0  0  0  0  0  0  0  0  0  0
  1  2  1  0
  2  3  1  0
  3  4  1  0
  4  5  2  0
  4  6  1  0
  6  7  1  0
  7  8  2  0
  8  9  1  0
  9 10  2  0
 10 11  1  0
 11 12  1  0
 11 13  1  0
 13 14  1  0
 13 15  2  0
 15 16  1  0
  9 17  1  0
 17 18  2  0
 18 19  1  0
 19 20  2  0
 20 21  1  0
 21 22  2  0
 22 23  1  0
 23 24  1  0
 24 25  2  0
 25 26  1  0
 25 27  1  0
 27 28  2  0
 28 29  1  0
 28 30  1  0
 30 31  2  0
 31 32  1  0
 19 33  1  0
 33 34  1  0
 33 35  1  0
 33 36  1  0
 16  6  2  0
 22 17  1  0
 31 24  1  0
 15  8  1  0
  1 37  1  0
  1 38  1  0
  1 39  1  0
  2 40  1  0
  2 41  1  0
  3 42  1  0
  7 43  1  0
 10 44  1  0
 12 45  1  0
 12 46  1  0
 12 47  1  0
 14 48  1  0
 18 49  1  0
 20 50  1  0
 21 51  1  0
 26 52  1  0
 26 53  1  0
 26 54  1  0
 27 55  1  0
 30 56  1  0
 32 57  1  0
 32 58  1  0
 32 59  1  0
 34 60  1  0
 34 61  1  0
 34 62  1  0
 35 63  1  0
 35 64  1  0
 35 65  1  0
 36 66  1  0
M  END
>  <_MoleculeID>  (248) 
smi27

>  <_InputIndex>  (248) 
27

>  <_InputSMILES>  (248) 
CCNC(=O)c1cc2c(cn(C)c(O)c2n1)-c1cc(ccc1Oc1c(C)cc(F)cc1C)C(C)(C)O

>  <_InputInChIKey>  (248) 
LQPFCYWRBQRRGE-UHFFFAOYSA-N

>  <_SMILES>  (248) 
CCNC(=O)c1cc2c(-c3cc(C(C)(C)O)ccc3Oc3c(C)cc(F)cc3C)cn(C)c(O)c-2n1

>  <_InChIKey>  (248) 
LQPFCYWRBQRRGE-UHFFFAOYSA-N

$$$$
smi27_conf4
     RDKit          3D

 66 69  0  0  0  0  0  0  0  0999 V2000
   -0.5649   -0.0000    1.4124 C   0  0  0  0  0  0  0  0  0  0  0  0
    0.0000    0.0000    0.0000 C   0  0  0  0  0  0  0  0  0  0  0  0
    1.4360    0.0000    0.0000 N   0  0  0  0  0  0  0  0  0  0  0  0
    2.1778   -1.1542    0.2035 C   0  0  0  0  0  0  0  0  0  0  0  0
    1.6766   -2.2597    0.3984 O   0  0  0  0  0  0  0  0  0  0  0  0
    3.6549   -0.9664    0.2131 C   0  0  0  0  0  0  0  0  0  0  0  0
    4.2507   -0.0415    1.1902 C   0  0  0  0  0  0  0  0  0  0  0  0
    5.5430   -0.1535    0.8818 C   0  0  0  0  0  0  0  0  0  0  0  0
    6.6963    0.5013    1.4717 C   0  0  0  0  0  0  0  0  0  0  0  0
    7.8924    0.1797    0.9366 C   0  0  0  0  0  0  0  0  0  0  0  0
    8.0270   -0.7178   -0.1107 N   0  0  0  0  0  0  0  0  0  0  0  0
    9.3476   -1.0058   -0.6245 C   0  0  0  0  0  0  0  0  0  0  0  0
    6.9316   -1.3452   -0.6772 C   0  0  0  0  0  0  0  0  0  0  0  0
    7.2223   -2.2073   -1.7056 O   0  0  0  0  0  0  0  0  0  0  0  0
    5.6963   -1.0953   -0.2188 C   0  0  0  0  0  0  0  0  0  0  0  0
    4.4738   -1.5725   -0.5954 N   0  0  0  0  0  0  0  0  0  0  0  0
    6.5515    1.4392    2.5667 C   0  0  0  0  0  0  0  0  0  0  0  0
    5.8056    2.6097    2.4064 C   0  0  0  0  0  0  0  0  0  0  0  0
    5.6599    3.5220    3.4620 C   0  0  0  0  0  0  0  0  0  0  0  0
    6.2529    3.3060    4.7155 C   0  0  0  0  0  0  0  0  0  0  0  0
    7.0088    2.1239    4.8363 C   0  0  0  0  0  0  0  0  0  0  0  0
    7.1691    1.2009    3.7938 C   0  0  0  0  0  0  0  0  0  0  0  0
    7.9217    0.0629    3.9725 O   0  0  0  0  0  0  0  0  0  0  0  0
    8.4974   -0.1145    5.2097 C   0  0  0  0  0  0  0  0  0  0  0  0
    7.8177   -0.7943    6.2197 C   0  0  0  0  0  0  0  0  0  0  0  0
    6.4559   -1.3310    5.9635 C   0  0  0  0  0  0  0  0  0  0  0  0
    8.4274   -0.9569    7.4712 C   0  0  0  0  0  0  0  0  0  0  0  0
    9.7145   -0.4728    7.7752 C   0  0  0  0  0  0  0  0  0  0  0  0
   10.2759   -0.6453    8.9819 F   0  0  0  0  0  0  0  0  0  0  0  0
   10.3759    0.1909    6.7304 C   0  0  0  0  0  0  0  0  0  0  0  0
    9.7826    0.3668    5.4715 C   0  0  0  0  0  0  0  0  0  0  0  0
   10.5479    1.0734    4.4117 C   0  0  0  0  0  0  0  0  0  0  0  0
    4.8544    4.7418    3.1948 C   0  0  0  0  0  0  0  0  0  0  0  0
    3.3877    4.3904    2.7882 C   0  0  0  0  0  0  0  0  0  0  0  0
    4.9227    5.7697    4.3946 C   0  0  0  0  0  0  0  0  0  0  0  0
    5.4386    5.4072    2.0554 O   0  0  0  0  0  0  0  0  0  0  0  0
   -1.6586   -0.0202    1.3838 H   0  0  0  0  0  0  0  0  0  0  0  0
   -0.2551    0.8896    1.9689 H   0  0  0  0  0  0  0  0  0  0  0  0
   -0.2206   -0.8774    1.9699 H   0  0  0  0  0  0  0  0  0  0  0  0
   -0.3639   -0.8973   -0.5131 H   0  0  0  0  0  0  0  0  0  0  0  0
   -0.3822    0.8403   -0.5775 H   0  0  0  0  0  0  0  0  0  0  0  0
    1.8977    0.8987   -0.0853 H   0  0  0  0  0  0  0  0  0  0  0  0
    3.7474    0.5464    1.9339 H   0  0  0  0  0  0  0  0  0  0  0  0
    8.8285    0.5971    1.2847 H   0  0  0  0  0  0  0  0  0  0  0  0
   10.0906   -0.4296   -0.0676 H   0  0  0  0  0  0  0  0  0  0  0  0
    9.3764   -0.7269   -1.6809 H   0  0  0  0  0  0  0  0  0  0  0  0
    9.5396   -2.0749   -0.5043 H   0  0  0  0  0  0  0  0  0  0  0  0
    6.3994   -2.5994   -2.0403 H   0  0  0  0  0  0  0  0  0  0  0  0
    5.3290    2.8297    1.4540 H   0  0  0  0  0  0  0  0  0  0  0  0
    6.1444    4.0062    5.5331 H   0  0  0  0  0  0  0  0  0  0  0  0
    7.4933    1.9178    5.7898 H   0  0  0  0  0  0  0  0  0  0  0  0
    6.0662   -1.8273    6.8571 H   0  0  0  0  0  0  0  0  0  0  0  0
    6.4655   -2.0482    5.1372 H   0  0  0  0  0  0  0  0  0  0  0  0
    5.7616   -0.5283    5.6937 H   0  0  0  0  0  0  0  0  0  0  0  0
    7.8786   -1.4850    8.2500 H   0  0  0  0  0  0  0  0  0  0  0  0
   11.3800    0.5858    6.8635 H   0  0  0  0  0  0  0  0  0  0  0  0
   11.5299    1.3765    4.7868 H   0  0  0  0  0  0  0  0  0  0  0  0
   10.0119    1.9628    4.0669 H   0  0  0  0  0  0  0  0  0  0  0  0
   10.7042    0.4263    3.5422 H   0  0  0  0  0  0  0  0  0  0  0  0
    2.8316    5.2991    2.5333 H   0  0  0  0  0  0  0  0  0  0  0  0
    2.8692    3.8767    3.6038 H   0  0  0  0  0  0  0  0  0  0  0  0
    3.3769    3.7479    1.9007 H   0  0  0  0  0  0  0  0  0  0  0  0
    4.3737    6.6836    4.1438 H   0  0  0  0  0  0  0  0  0  0  0  0
    5.9614    6.0575    4.5901 H   0  0  0  0  0  0  0  0  0  0  0  0
    4.4946    5.3329    5.3020 H   0  0  0  0  0  0  0  0  0  0  0  0
    4.9216    6.2131    1.8848 H   0  0  0  0  0  0  0  0  0  0  0  0
  1  2  1  0
  2  3  1  0
  3  4  1  0
  4  5  2  0
  4  6  1  0
  6  7  1  0
  7  8  2  0
  8  9  1  0
  9 10  2  0
 10 11  1  0
 11 12  1  0
 11 13  1  0
 13 14  1  0
 13 15  2  0
 15 16  1  0
  9 17  1  0
 17 18  2  0
 18 19  1  0
 19 20  2  0
 20 21  1  0
 21 22  2  0
 22 23  1  0
 23 24  1  0
 24 25  2  0
 25 26  1  0
 25 27  1  0
 27 28  2  0
 28 29  1  0
 28 30  1  0
 30 31  2  0
 31 32  1  0
 19 33  1  0
 33 34  1  0
 33 35  1  0
 33 36  1  0
 16  6  2  0
 22 17  1  0
 31 24  1  0
 15  8  1  0
  1 37  1  0
  1 38  1  0
  1 39  1  0
  2 40  1  0
  2 41  1  0
  3 42  1  0
  7 43  1  0
 10 44  1  0
 12 45  1  0
 12 46  1  0
 12 47  1  0
 14 48  1  0
 18 49  1  0
 20 50  1  0
 21 51  1  0
 26 52  1  0
 26 53  1  0
 26 54  1  0
 27 55  1  0
 30 56  1  0
 32 57  1  0
 32 58  1  0
 32 59  1  0
 34 60  1  0
 34 61  1  0
 34 62  1  0
 35 63  1  0
 35 64  1  0
 35 65  1  0
 36 66  1  0
M  END
>  <_MoleculeID>  (249) 
smi27

>  <_InputIndex>  (249) 
27

>  <_InputSMILES>  (249) 
CCNC(=O)c1cc2c(cn(C)c(O)c2n1)-c1cc(ccc1Oc1c(C)cc(F)cc1C)C(C)(C)O

>  <_InputInChIKey>  (249) 
LQPFCYWRBQRRGE-UHFFFAOYSA-N

>  <_SMILES>  (249) 
CCNC(=O)c1cc2c(-c3cc(C(C)(C)O)ccc3Oc3c(C)cc(F)cc3C)cn(C)c(O)c-2n1

>  <_InChIKey>  (249) 
LQPFCYWRBQRRGE-UHFFFAOYSA-N

$$$$
smi27_conf5
     RDKit          3D

 66 69  0  0  0  0  0  0  0  0999 V2000
   -0.5649   -0.0000    1.4124 C   0  0  0  0  0  0  0  0  0  0  0  0
    0.0000    0.0000    0.0000 C   0  0  0  0  0  0  0  0  0  0  0  0
    1.4360    0.0000    0.0000 N   0  0  0  0  0  0  0  0  0  0  0  0
    2.1778    1.1542    0.2035 C   0  0  0  0  0  0  0  0  0  0  0  0
    1.6766    2.2597    0.3984 O   0  0  0  0  0  0  0  0  0  0  0  0
    3.6549    0.9810    0.1303 C   0  0  0  0  0  0  0  0  0  0  0  0
    4.4085    1.7071   -0.9041 C   0  0  0  0  0  0  0  0  0  0  0  0
    5.6495    1.2965   -0.6412 C   0  0  0  0  0  0  0  0  0  0  0  0
    6.8971    1.6376   -1.2997 C   0  0  0  0  0  0  0  0  0  0  0  0
    8.0053    1.0533   -0.7985 C   0  0  0  0  0  0  0  0  0  0  0  0
    7.9699    0.1802    0.2771 N   0  0  0  0  0  0  0  0  0  0  0  0
    9.2057   -0.4020    0.7510 C   0  0  0  0  0  0  0  0  0  0  0  0
    6.7838   -0.1489    0.9090 C   0  0  0  0  0  0  0  0  0  0  0  0
    6.9074   -1.0256    1.9584 O   0  0  0  0  0  0  0  0  0  0  0  0
    5.6241    0.3775    0.4887 C   0  0  0  0  0  0  0  0  0  0  0  0
    4.3418    0.2193    0.9300 N   0  0  0  0  0  0  0  0  0  0  0  0
    6.9301    2.5510   -2.4241 C   0  0  0  0  0  0  0  0  0  0  0  0
    7.5662    3.7901   -2.3153 C   0  0  0  0  0  0  0  0  0  0  0  0
    7.6032    4.6793   -3.3995 C   0  0  0  0  0  0  0  0  0  0  0  0
    7.0065    4.3709   -4.6318 C   0  0  0  0  0  0  0  0  0  0  0  0
    6.3623    3.1204   -4.7006 C   0  0  0  0  0  0  0  0  0  0  0  0
    6.3114    2.2188   -3.6288 C   0  0  0  0  0  0  0  0  0  0  0  0
    5.6652    1.0108   -3.7568 O   0  0  0  0  0  0  0  0  0  0  0  0
    5.0825    0.7428   -4.9742 C   0  0  0  0  0  0  0  0  0  0  0  0
    5.8012    0.0986   -5.9805 C   0  0  0  0  0  0  0  0  0  0  0  0
    7.2125   -0.3009   -5.7420 C   0  0  0  0  0  0  0  0  0  0  0  0
    5.1830   -0.1583   -7.2119 C   0  0  0  0  0  0  0  0  0  0  0  0
    3.8500    0.1944   -7.4985 C   0  0  0  0  0  0  0  0  0  0  0  0
    3.2817   -0.0664   -8.6859 F   0  0  0  0  0  0  0  0  0  0  0  0
    3.1517    0.8254   -6.4574 C   0  0  0  0  0  0  0  0  0  0  0  0
    3.7525    1.0942   -5.2186 C   0  0  0  0  0  0  0  0  0  0  0  0
    2.9471    1.7586   -4.1613 C   0  0  0  0  0  0  0  0  0  0  0  0
    8.2963    5.9764   -3.1866 C   0  0  0  0  0  0  0  0  0  0  0  0
    9.7978    5.7756   -2.8056 C   0  0  0  0  0  0  0  0  0  0  0  0
    8.1065    6.9563   -4.4133 C   0  0  0  0  0  0  0  0  0  0  0  0
    7.6767    6.6191   -2.0530 O   0  0  0  0  0  0  0  0  0  0  0  0
   -1.6586   -0.0202    1.3838 H   0  0  0  0  0  0  0  0  0  0  0  0
   -0.2551    0.8896    1.9689 H   0  0  0  0  0  0  0  0  0  0  0  0
   -0.2206   -0.8774    1.9699 H   0  0  0  0  0  0  0  0  0  0  0  0
   -0.3639   -0.8973   -0.5131 H   0  0  0  0  0  0  0  0  0  0  0  0
   -0.3822    0.8403   -0.5775 H   0  0  0  0  0  0  0  0  0  0  0  0
    1.8977   -0.8737   -0.2272 H   0  0  0  0  0  0  0  0  0  0  0  0
    4.0263    2.3772   -1.6505 H   0  0  0  0  0  0  0  0  0  0  0  0
    8.9969    1.2232   -1.1980 H   0  0  0  0  0  0  0  0  0  0  0  0
   10.0383   -0.0375    0.1441 H   0  0  0  0  0  0  0  0  0  0  0  0
    9.1315   -1.4890    0.6657 H   0  0  0  0  0  0  0  0  0  0  0  0
    9.3489   -0.1076    1.7937 H   0  0  0  0  0  0  0  0  0  0  0  0
    6.0310   -1.1986    2.3394 H   0  0  0  0  0  0  0  0  0  0  0  0
    8.0402    4.0826   -1.3812 H   0  0  0  0  0  0  0  0  0  0  0  0
    7.0314    5.0528   -5.4713 H   0  0  0  0  0  0  0  0  0  0  0  0
    5.8791    2.8410   -5.6360 H   0  0  0  0  0  0  0  0  0  0  0  0
    7.6279   -0.7859   -6.6303 H   0  0  0  0  0  0  0  0  0  0  0  0
    7.2878   -0.9903   -4.8957 H   0  0  0  0  0  0  0  0  0  0  0  0
    7.8341    0.5707   -5.5120 H   0  0  0  0  0  0  0  0  0  0  0  0
    5.7621   -0.6565   -7.9883 H   0  0  0  0  0  0  0  0  0  0  0  0
    2.1124    1.1209   -6.5774 H   0  0  0  0  0  0  0  0  0  0  0  0
    1.9333    1.9574   -4.5211 H   0  0  0  0  0  0  0  0  0  0  0  0
    3.4047    2.7041   -3.8549 H   0  0  0  0  0  0  0  0  0  0  0  0
    2.8707    1.1267   -3.2702 H   0  0  0  0  0  0  0  0  0  0  0  0
   10.2716    6.7394   -2.5901 H   0  0  0  0  0  0  0  0  0  0  0  0
   10.3447    5.2877   -3.6185 H   0  0  0  0  0  0  0  0  0  0  0  0
    9.8877    5.1643   -1.9007 H   0  0  0  0  0  0  0  0  0  0  0  0
    8.5726    7.9245   -4.2018 H   0  0  0  0  0  0  0  0  0  0  0  0
    7.0414    7.1400   -4.5919 H   0  0  0  0  0  0  0  0  0  0  0  0
    8.5541    6.5337   -5.3179 H   0  0  0  0  0  0  0  0  0  0  0  0
    8.1194    7.4745   -1.9179 H   0  0  0  0  0  0  0  0  0  0  0  0
  1  2  1  0
  2  3  1  0
  3  4  1  0
  4  5  2  0
  4  6  1  0
  6  7  1  0
  7  8  2  0
  8  9  1  0
  9 10  2  0
 10 11  1  0
 11 12  1  0
 11 13  1  0
 13 14  1  0
 13 15  2  0
 15 16  1  0
  9 17  1  0
 17 18  2  0
 18 19  1  0
 19 20  2  0
 20 21  1  0
 21 22  2  0
 22 23  1  0
 23 24  1  0
 24 25  2  0
 25 26  1  0
 25 27  1  0
 27 28  2  0
 28 29  1  0
 28 30  1  0
 30 31  2  0
 31 32  1  0
 19 33  1  0
 33 34  1  0
 33 35  1  0
 33 36  1  0
 16  6  2  0
 22 17  1  0
 31 24  1  0
 15  8  1  0
  1 37  1  0
  1 38  1  0
  1 39  1  0
  2 40  1  0
  2 41  1  0
  3 42  1  0
  7 43  1  0
 10 44  1  0
 12 45  1  0
 12 46  1  0
 12 47  1  0
 14 48  1  0
 18 49  1  0
 20 50  1  0
 21 51  1  0
 26 52  1  0
 26 53  1  0
 26 54  1  0
 27 55  1  0
 30 56  1  0
 32 57  1  0
 32 58  1  0
 32 59  1  0
 34 60  1  0
 34 61  1  0
 34 62  1  0
 35 63  1  0
 35 64  1  0
 35 65  1  0
 36 66  1  0
M  END
>  <_MoleculeID>  (250) 
smi27

>  <_InputIndex>  (250) 
27

>  <_InputSMILES>  (250) 
CCNC(=O)c1cc2c(cn(C)c(O)c2n1)-c1cc(ccc1Oc1c(C)cc(F)cc1C)C(C)(C)O

>  <_InputInChIKey>  (250) 
LQPFCYWRBQRRGE-UHFFFAOYSA-N

>  <_SMILES>  (250) 
CCNC(=O)c1cc2c(-c3cc(C(C)(C)O)ccc3Oc3c(C)cc(F)cc3C)cn(C)c(O)c-2n1

>  <_InChIKey>  (250) 
LQPFCYWRBQRRGE-UHFFFAOYSA-N

$$$$
smi27_conf6
     RDKit          3D

 66 69  0  0  0  0  0  0  0  0999 V2000
   -0.5649   -0.0000    1.4124 C   0  0  0  0  0  0  0  0  0  0  0  0
    0.0000    0.0000    0.0000 C   0  0  0  0  0  0  0  0  0  0  0  0
    1.4360   -0.0000    0.0000 N   0  0  0  0  0  0  0  0  0  0  0  0
    2.1778   -0.0000   -1.1721 C   0  0  0  0  0  0  0  0  0  0  0  0
    1.6766   -0.0000   -2.2945 O   0  0  0  0  0  0  0  0  0  0  0  0
    3.6549   -0.0421   -0.9887 C   0  0  0  0  0  0  0  0  0  0  0  0
    4.3179    1.0623   -0.2775 C   0  0  0  0  0  0  0  0  0  0  0  0
    5.5883    0.6605   -0.3246 C   0  0  0  0  0  0  0  0  0  0  0  0
    6.7818    1.2987    0.1999 C   0  0  0  0  0  0  0  0  0  0  0  0
    7.9404    0.6392   -0.0071 C   0  0  0  0  0  0  0  0  0  0  0  0
    8.0027   -0.5725   -0.6768 N   0  0  0  0  0  0  0  0  0  0  0  0
    9.2872   -1.2121   -0.8551 C   0  0  0  0  0  0  0  0  0  0  0  0
    6.8687   -1.1859   -1.1791 C   0  0  0  0  0  0  0  0  0  0  0  0
    7.0883   -2.3813   -1.8177 O   0  0  0  0  0  0  0  0  0  0  0  0
    5.6656   -0.6133   -1.0270 C   0  0  0  0  0  0  0  0  0  0  0  0
    4.4176   -1.0032   -1.4201 N   0  0  0  0  0  0  0  0  0  0  0  0
    6.7126    2.5657    0.8997 C   0  0  0  0  0  0  0  0  0  0  0  0
    7.0318    2.6465    2.2575 C   0  0  0  0  0  0  0  0  0  0  0  0
    6.9683    3.8694    2.9416 C   0  0  0  0  0  0  0  0  0  0  0  0
    6.5821    5.0574    2.3019 C   0  0  0  0  0  0  0  0  0  0  0  0
    6.2538    4.9358    0.9378 C   0  0  0  0  0  0  0  0  0  0  0  0
    6.3080    3.7235    0.2364 C   0  0  0  0  0  0  0  0  0  0  0  0
    5.9737    3.6678   -1.0972 O   0  0  0  0  0  0  0  0  0  0  0  0
    5.5902    4.8477   -1.6924 C   0  0  0  0  0  0  0  0  0  0  0  0
    4.2510    5.2358   -1.7048 C   0  0  0  0  0  0  0  0  0  0  0  0
    3.2232    4.3678   -1.0737 C   0  0  0  0  0  0  0  0  0  0  0  0
    3.8891    6.4414   -2.3213 C   0  0  0  0  0  0  0  0  0  0  0  0
    4.8153    7.3068   -2.9350 C   0  0  0  0  0  0  0  0  0  0  0  0
    4.4414    8.4573   -3.5158 F   0  0  0  0  0  0  0  0  0  0  0  0
    6.1556    6.8931   -2.8886 C   0  0  0  0  0  0  0  0  0  0  0  0
    6.5387    5.6892   -2.2791 C   0  0  0  0  0  0  0  0  0  0  0  0
    7.9784    5.3214   -2.2624 C   0  0  0  0  0  0  0  0  0  0  0  0
    7.3191    3.8553    4.3855 C   0  0  0  0  0  0  0  0  0  0  0  0
    6.3788    2.9117    5.2012 C   0  0  0  0  0  0  0  0  0  0  0  0
    8.8505    3.5367    4.6186 C   0  0  0  0  0  0  0  0  0  0  0  0
    7.0976    5.1853    4.8994 O   0  0  0  0  0  0  0  0  0  0  0  0
   -1.6586   -0.0202    1.3838 H   0  0  0  0  0  0  0  0  0  0  0  0
   -0.2551    0.8896    1.9689 H   0  0  0  0  0  0  0  0  0  0  0  0
   -0.2206   -0.8774    1.9699 H   0  0  0  0  0  0  0  0  0  0  0  0
   -0.3639   -0.8973   -0.5131 H   0  0  0  0  0  0  0  0  0  0  0  0
   -0.3822    0.8403   -0.5775 H   0  0  0  0  0  0  0  0  0  0  0  0
    1.8977   -0.0720    0.8999 H   0  0  0  0  0  0  0  0  0  0  0  0
    3.8661    1.9375    0.1493 H   0  0  0  0  0  0  0  0  0  0  0  0
    8.9002    1.0065    0.3330 H   0  0  0  0  0  0  0  0  0  0  0  0
   10.0683   -0.5972   -0.4014 H   0  0  0  0  0  0  0  0  0  0  0  0
    9.4745   -1.3200   -1.9264 H   0  0  0  0  0  0  0  0  0  0  0  0
    9.2560   -2.1911   -0.3703 H   0  0  0  0  0  0  0  0  0  0  0  0
    6.2426   -2.7375   -2.1356 H   0  0  0  0  0  0  0  0  0  0  0  0
    7.3320    1.7553    2.8038 H   0  0  0  0  0  0  0  0  0  0  0  0
    6.5308    6.0034    2.8243 H   0  0  0  0  0  0  0  0  0  0  0  0
    5.9417    5.8311    0.4015 H   0  0  0  0  0  0  0  0  0  0  0  0
    2.2298    4.8142   -1.1772 H   0  0  0  0  0  0  0  0  0  0  0  0
    3.4341    4.2187   -0.0105 H   0  0  0  0  0  0  0  0  0  0  0  0
    3.1998    3.3799   -1.5456 H   0  0  0  0  0  0  0  0  0  0  0  0
    2.8374    6.7250   -2.3270 H   0  0  0  0  0  0  0  0  0  0  0  0
    6.9458    7.5020   -3.3208 H   0  0  0  0  0  0  0  0  0  0  0  0
    8.5754    6.0913   -2.7600 H   0  0  0  0  0  0  0  0  0  0  0  0
    8.1452    4.3647   -2.7663 H   0  0  0  0  0  0  0  0  0  0  0  0
    8.3462    5.2206   -1.2359 H   0  0  0  0  0  0  0  0  0  0  0  0
    6.6129    2.9665    6.2699 H   0  0  0  0  0  0  0  0  0  0  0  0
    6.4845    1.8739    4.8698 H   0  0  0  0  0  0  0  0  0  0  0  0
    5.3325    3.2161    5.0859 H   0  0  0  0  0  0  0  0  0  0  0  0
    9.0929    3.5960    5.6850 H   0  0  0  0  0  0  0  0  0  0  0  0
    9.4751    4.2733    4.1015 H   0  0  0  0  0  0  0  0  0  0  0  0
    9.0970    2.5360    4.2507 H   0  0  0  0  0  0  0  0  0  0  0  0
    7.3380    5.1835    5.8418 H   0  0  0  0  0  0  0  0  0  0  0  0
  1  2  1  0
  2  3  1  0
  3  4  1  0
  4  5  2  0
  4  6  1  0
  6  7  1  0
  7  8  2  0
  8  9  1  0
  9 10  2  0
 10 11  1  0
 11 12  1  0
 11 13  1  0
 13 14  1  0
 13 15  2  0
 15 16  1  0
  9 17  1  0
 17 18  2  0
 18 19  1  0
 19 20  2  0
 20 21  1  0
 21 22  2  0
 22 23  1  0
 23 24  1  0
 24 25  2  0
 25 26  1  0
 25 27  1  0
 27 28  2  0
 28 29  1  0
 28 30  1  0
 30 31  2  0
 31 32  1  0
 19 33  1  0
 33 34  1  0
 33 35  1  0
 33 36  1  0
 16  6  2  0
 22 17  1  0
 31 24  1  0
 15  8  1  0
  1 37  1  0
  1 38  1  0
  1 39  1  0
  2 40  1  0
  2 41  1  0
  3 42  1  0
  7 43  1  0
 10 44  1  0
 12 45  1  0
 12 46  1  0
 12 47  1  0
 14 48  1  0
 18 49  1  0
 20 50  1  0
 21 51  1  0
 26 52  1  0
 26 53  1  0
 26 54  1  0
 27 55  1  0
 30 56  1  0
 32 57  1  0
 32 58  1  0
 32 59  1  0
 34 60  1  0
 34 61  1  0
 34 62  1  0
 35 63  1  0
 35 64  1  0
 35 65  1  0
 36 66  1  0
M  END
>  <_MoleculeID>  (251) 
smi27

>  <_InputIndex>  (251) 
27

>  <_InputSMILES>  (251) 
CCNC(=O)c1cc2c(cn(C)c(O)c2n1)-c1cc(ccc1Oc1c(C)cc(F)cc1C)C(C)(C)O

>  <_InputInChIKey>  (251) 
LQPFCYWRBQRRGE-UHFFFAOYSA-N

>  <_SMILES>  (251) 
CCNC(=O)c1cc2c(-c3cc(C(C)(C)O)ccc3Oc3c(C)cc(F)cc3C)cn(C)c(O)c-2n1

>  <_InChIKey>  (251) 
LQPFCYWRBQRRGE-UHFFFAOYSA-N

$$$$
smi27_conf7
     RDKit          3D

 66 69  0  0  0  0  0  0  0  0999 V2000
   -0.5649   -0.0000    1.4124 C   0  0  0  0  0  0  0  0  0  0  0  0
    0.0000    0.0000    0.0000 C   0  0  0  0  0  0  0  0  0  0  0  0
    1.4360    0.0000    0.0000 N   0  0  0  0  0  0  0  0  0  0  0  0
    2.1778    1.1542    0.2035 C   0  0  0  0  0  0  0  0  0  0  0  0
    1.6766    2.2597    0.3984 O   0  0  0  0  0  0  0  0  0  0  0  0
    3.6549    0.9810    0.1303 C   0  0  0  0  0  0  0  0  0  0  0  0
    4.3179    0.0888    1.0944 C   0  0  0  0  0  0  0  0  0  0  0  0
    5.5883    0.2049    0.7069 C   0  0  0  0  0  0  0  0  0  0  0  0
    6.7818   -0.4224    1.2443 C   0  0  0  0  0  0  0  0  0  0  0  0
    7.9404   -0.1040    0.6307 C   0  0  0  0  0  0  0  0  0  0  0  0
    8.0027    0.7660   -0.4463 N   0  0  0  0  0  0  0  0  0  0  0  0
    9.2872    1.0526   -1.0452 C   0  0  0  0  0  0  0  0  0  0  0  0
    6.8687    1.3671   -0.9631 C   0  0  0  0  0  0  0  0  0  0  0  0
    7.0883    2.2036   -2.0295 O   0  0  0  0  0  0  0  0  0  0  0  0
    5.6656    1.1179   -0.4256 C   0  0  0  0  0  0  0  0  0  0  0  0
    4.4176    1.5728   -0.7414 N   0  0  0  0  0  0  0  0  0  0  0  0
    6.7126   -1.3315    2.3705 C   0  0  0  0  0  0  0  0  0  0  0  0
    7.0318   -2.6827    2.2143 C   0  0  0  0  0  0  0  0  0  0  0  0
    6.9683   -3.5688    3.2998 C   0  0  0  0  0  0  0  0  0  0  0  0
    6.5821   -3.1451    4.5808 C   0  0  0  0  0  0  0  0  0  0  0  0
    6.2538   -1.7806    4.6979 C   0  0  0  0  0  0  0  0  0  0  0  0
    6.3080   -0.8794    3.6259 C   0  0  0  0  0  0  0  0  0  0  0  0
    5.9737    0.4437    3.8026 O   0  0  0  0  0  0  0  0  0  0  0  0
    5.5902    0.8249    5.0679 C   0  0  0  0  0  0  0  0  0  0  0  0
    4.2510    0.7697    5.4523 C   0  0  0  0  0  0  0  0  0  0  0  0
    3.2232    0.2989    4.4879 C   0  0  0  0  0  0  0  0  0  0  0  0
    3.8891    1.1675    6.7466 C   0  0  0  0  0  0  0  0  0  0  0  0
    4.8153    1.6216    7.7054 C   0  0  0  0  0  0  0  0  0  0  0  0
    4.4414    1.9938    8.9394 F   0  0  0  0  0  0  0  0  0  0  0  0
    6.1556    1.6478    7.2900 C   0  0  0  0  0  0  0  0  0  0  0  0
    6.5387    1.2566    5.9986 C   0  0  0  0  0  0  0  0  0  0  0  0
    7.9784    1.3039    5.6335 C   0  0  0  0  0  0  0  0  0  0  0  0
    7.3191   -4.9883    3.0352 C   0  0  0  0  0  0  0  0  0  0  0  0
    8.7818   -5.1351    2.5071 C   0  0  0  0  0  0  0  0  0  0  0  0
    7.0289   -5.9119    4.2856 C   0  0  0  0  0  0  0  0  0  0  0  0
    6.4603   -5.4576    1.9748 O   0  0  0  0  0  0  0  0  0  0  0  0
   -1.6586   -0.0202    1.3838 H   0  0  0  0  0  0  0  0  0  0  0  0
   -0.2551    0.8896    1.9689 H   0  0  0  0  0  0  0  0  0  0  0  0
   -0.2206   -0.8774    1.9699 H   0  0  0  0  0  0  0  0  0  0  0  0
   -0.3639   -0.8973   -0.5131 H   0  0  0  0  0  0  0  0  0  0  0  0
   -0.3822    0.8403   -0.5775 H   0  0  0  0  0  0  0  0  0  0  0  0
    1.8977   -0.8737   -0.2272 H   0  0  0  0  0  0  0  0  0  0  0  0
    3.8661   -0.4834    1.8821 H   0  0  0  0  0  0  0  0  0  0  0  0
    8.9002   -0.5027    0.9334 H   0  0  0  0  0  0  0  0  0  0  0  0
   10.0683    0.4990   -0.5184 H   0  0  0  0  0  0  0  0  0  0  0  0
    9.4745    2.1264   -0.9655 H   0  0  0  0  0  0  0  0  0  0  0  0
    9.2560    0.7452   -2.0935 H   0  0  0  0  0  0  0  0  0  0  0  0
    6.2426    2.5785   -2.3251 H   0  0  0  0  0  0  0  0  0  0  0  0
    7.3320   -3.0660    1.2418 H   0  0  0  0  0  0  0  0  0  0  0  0
    6.5308   -3.8239    5.4217 H   0  0  0  0  0  0  0  0  0  0  0  0
    5.9417   -1.4079    5.6728 H   0  0  0  0  0  0  0  0  0  0  0  0
    2.2298    0.3234    4.9455 H   0  0  0  0  0  0  0  0  0  0  0  0
    3.4341   -0.7223    4.1565 H   0  0  0  0  0  0  0  0  0  0  0  0
    3.1998    0.9352    3.5970 H   0  0  0  0  0  0  0  0  0  0  0  0
    2.8374    1.1238    7.0269 H   0  0  0  0  0  0  0  0  0  0  0  0
    6.9458    1.9676    7.9647 H   0  0  0  0  0  0  0  0  0  0  0  0
    8.5754    1.6604    6.4780 H   0  0  0  0  0  0  0  0  0  0  0  0
    8.1452    1.9664    4.7788 H   0  0  0  0  0  0  0  0  0  0  0  0
    8.3462    0.3106    5.3559 H   0  0  0  0  0  0  0  0  0  0  0  0
    8.9970   -6.1798    2.2574 H   0  0  0  0  0  0  0  0  0  0  0  0
    9.5033   -4.7959    3.2571 H   0  0  0  0  0  0  0  0  0  0  0  0
    8.9216   -4.5508    1.5908 H   0  0  0  0  0  0  0  0  0  0  0  0
    7.2361   -6.9591    4.0408 H   0  0  0  0  0  0  0  0  0  0  0  0
    5.9729   -5.8469    4.5694 H   0  0  0  0  0  0  0  0  0  0  0  0
    7.6482   -5.6144    5.1373 H   0  0  0  0  0  0  0  0  0  0  0  0
    6.6782   -6.3905    1.8070 H   0  0  0  0  0  0  0  0  0  0  0  0
  1  2  1  0
  2  3  1  0
  3  4  1  0
  4  5  2  0
  4  6  1  0
  6  7  1  0
  7  8  2  0
  8  9  1  0
  9 10  2  0
 10 11  1  0
 11 12  1  0
 11 13  1  0
 13 14  1  0
 13 15  2  0
 15 16  1  0
  9 17  1  0
 17 18  2  0
 18 19  1  0
 19 20  2  0
 20 21  1  0
 21 22  2  0
 22 23  1  0
 23 24  1  0
 24 25  2  0
 25 26  1  0
 25 27  1  0
 27 28  2  0
 28 29  1  0
 28 30  1  0
 30 31  2  0
 31 32  1  0
 19 33  1  0
 33 34  1  0
 33 35  1  0
 33 36  1  0
 16  6  2  0
 22 17  1  0
 31 24  1  0
 15  8  1  0
  1 37  1  0
  1 38  1  0
  1 39  1  0
  2 40  1  0
  2 41  1  0
  3 42  1  0
  7 43  1  0
 10 44  1  0
 12 45  1  0
 12 46  1  0
 12 47  1  0
 14 48  1  0
 18 49  1  0
 20 50  1  0
 21 51  1  0
 26 52  1  0
 26 53  1  0
 26 54  1  0
 27 55  1  0
 30 56  1  0
 32 57  1  0
 32 58  1  0
 32 59  1  0
 34 60  1  0
 34 61  1  0
 34 62  1  0
 35 63  1  0
 35 64  1  0
 35 65  1  0
 36 66  1  0
M  END
>  <_MoleculeID>  (252) 
smi27

>  <_InputIndex>  (252) 
27

>  <_InputSMILES>  (252) 
CCNC(=O)c1cc2c(cn(C)c(O)c2n1)-c1cc(ccc1Oc1c(C)cc(F)cc1C)C(C)(C)O

>  <_InputInChIKey>  (252) 
LQPFCYWRBQRRGE-UHFFFAOYSA-N

>  <_SMILES>  (252) 
CCNC(=O)c1cc2c(-c3cc(C(C)(C)O)ccc3Oc3c(C)cc(F)cc3C)cn(C)c(O)c-2n1

>  <_InChIKey>  (252) 
LQPFCYWRBQRRGE-UHFFFAOYSA-N

$$$$
smi27_conf8
     RDKit          3D

 66 69  0  0  0  0  0  0  0  0999 V2000
   -0.5649   -0.0000    1.4124 C   0  0  0  0  0  0  0  0  0  0  0  0
    0.0000    0.0000    0.0000 C   0  0  0  0  0  0  0  0  0  0  0  0
    1.4360    0.0000    0.0000 N   0  0  0  0  0  0  0  0  0  0  0  0
    2.1778   -1.1542    0.2035 C   0  0  0  0  0  0  0  0  0  0  0  0
    1.6766   -2.2597    0.3984 O   0  0  0  0  0  0  0  0  0  0  0  0
    3.6549   -0.9664    0.2131 C   0  0  0  0  0  0  0  0  0  0  0  0
    4.4757   -1.7112   -0.7547 C   0  0  0  0  0  0  0  0  0  0  0  0
    5.6948   -1.2798   -0.4300 C   0  0  0  0  0  0  0  0  0  0  0  0
    6.9826   -1.6242   -1.0040 C   0  0  0  0  0  0  0  0  0  0  0  0
    8.0533   -1.0144   -0.4542 C   0  0  0  0  0  0  0  0  0  0  0  0
    7.9456   -0.1135    0.5933 N   0  0  0  0  0  0  0  0  0  0  0  0
    9.1454    0.4950    1.1235 C   0  0  0  0  0  0  0  0  0  0  0  0
    6.7209    0.2190    1.1447 C   0  0  0  0  0  0  0  0  0  0  0  0
    6.7734    1.1246    2.1753 O   0  0  0  0  0  0  0  0  0  0  0  0
    5.5934   -0.3314    0.6710 C   0  0  0  0  0  0  0  0  0  0  0  0
    4.2856   -0.1760    1.0311 N   0  0  0  0  0  0  0  0  0  0  0  0
    7.0912   -2.5667   -2.0992 C   0  0  0  0  0  0  0  0  0  0  0  0
    6.6600   -3.8869   -1.9466 C   0  0  0  0  0  0  0  0  0  0  0  0
    6.7608   -4.8049   -3.0025 C   0  0  0  0  0  0  0  0  0  0  0  0
    7.2969   -4.4454   -4.2486 C   0  0  0  0  0  0  0  0  0  0  0  0
    7.7344   -3.1115   -4.3617 C   0  0  0  0  0  0  0  0  0  0  0  0
    7.6453   -2.1794   -3.3188 C   0  0  0  0  0  0  0  0  0  0  0  0
    8.0913   -0.8890   -3.4897 O   0  0  0  0  0  0  0  0  0  0  0  0
    8.6201   -0.5712   -4.7196 C   0  0  0  0  0  0  0  0  0  0  0  0
    7.8049   -0.0815   -5.7394 C   0  0  0  0  0  0  0  0  0  0  0  0
    6.3489    0.0969   -5.5015 C   0  0  0  0  0  0  0  0  0  0  0  0
    8.3704    0.2306   -6.9832 C   0  0  0  0  0  0  0  0  0  0  0  0
    9.7414    0.0845   -7.2699 C   0  0  0  0  0  0  0  0  0  0  0  0
   10.2572    0.3940   -8.4696 F   0  0  0  0  0  0  0  0  0  0  0  0
   10.5345   -0.3943   -6.2157 C   0  0  0  0  0  0  0  0  0  0  0  0
    9.9881   -0.7151   -4.9642 C   0  0  0  0  0  0  0  0  0  0  0  0
   10.8922   -1.2094   -3.8935 C   0  0  0  0  0  0  0  0  0  0  0  0
    6.2829   -6.1880   -2.7436 C   0  0  0  0  0  0  0  0  0  0  0  0
    6.4518   -7.1038   -3.9977 C   0  0  0  0  0  0  0  0  0  0  0  0
    6.9406   -6.8074   -1.4457 C   0  0  0  0  0  0  0  0  0  0  0  0
    4.8648   -6.1166   -2.4865 O   0  0  0  0  0  0  0  0  0  0  0  0
   -1.6586   -0.0202    1.3838 H   0  0  0  0  0  0  0  0  0  0  0  0
   -0.2551    0.8896    1.9689 H   0  0  0  0  0  0  0  0  0  0  0  0
   -0.2206   -0.8774    1.9699 H   0  0  0  0  0  0  0  0  0  0  0  0
   -0.3639   -0.8973   -0.5131 H   0  0  0  0  0  0  0  0  0  0  0  0
   -0.3822    0.8403   -0.5775 H   0  0  0  0  0  0  0  0  0  0  0  0
    1.8977    0.8987   -0.0853 H   0  0  0  0  0  0  0  0  0  0  0  0
    4.1450   -2.4052   -1.5039 H   0  0  0  0  0  0  0  0  0  0  0  0
    9.0685   -1.1837   -0.7896 H   0  0  0  0  0  0  0  0  0  0  0  0
   10.0160    0.1240    0.5771 H   0  0  0  0  0  0  0  0  0  0  0  0
    9.2296    0.2305    2.1806 H   0  0  0  0  0  0  0  0  0  0  0  0
    9.0653    1.5784    1.0041 H   0  0  0  0  0  0  0  0  0  0  0  0
    5.8743    1.2978    2.4989 H   0  0  0  0  0  0  0  0  0  0  0  0
    6.2415   -4.2208   -1.0000 H   0  0  0  0  0  0  0  0  0  0  0  0
    7.3776   -5.1491   -5.0664 H   0  0  0  0  0  0  0  0  0  0  0  0
    8.1641   -2.7891   -5.3093 H   0  0  0  0  0  0  0  0  0  0  0  0
    5.8589    0.4814   -6.4009 H   0  0  0  0  0  0  0  0  0  0  0  0
    6.1681    0.7923   -4.6763 H   0  0  0  0  0  0  0  0  0  0  0  0
    5.8742   -0.8544   -5.2394 H   0  0  0  0  0  0  0  0  0  0  0  0
    7.7170    0.6058   -7.7699 H   0  0  0  0  0  0  0  0  0  0  0  0
   11.6071   -0.5251   -6.3352 H   0  0  0  0  0  0  0  0  0  0  0  0
   11.9235   -1.2565   -4.2555 H   0  0  0  0  0  0  0  0  0  0  0  0
   10.5914   -2.2052   -3.5541 H   0  0  0  0  0  0  0  0  0  0  0  0
   10.8704   -0.5453   -3.0232 H   0  0  0  0  0  0  0  0  0  0  0  0
    6.0344   -8.0983   -3.8061 H   0  0  0  0  0  0  0  0  0  0  0  0
    7.5082   -7.2100   -4.2638 H   0  0  0  0  0  0  0  0  0  0  0  0
    5.9102   -6.6881   -4.8547 H   0  0  0  0  0  0  0  0  0  0  0  0
    6.5229   -7.7997   -1.2446 H   0  0  0  0  0  0  0  0  0  0  0  0
    6.7244   -6.1806   -0.5737 H   0  0  0  0  0  0  0  0  0  0  0  0
    8.0249   -6.8933   -1.5658 H   0  0  0  0  0  0  0  0  0  0  0  0
    4.5502   -7.0186   -2.3042 H   0  0  0  0  0  0  0  0  0  0  0  0
  1  2  1  0
  2  3  1  0
  3  4  1  0
  4  5  2  0
  4  6  1  0
  6  7  1  0
  7  8  2  0
  8  9  1  0
  9 10  2  0
 10 11  1  0
 11 12  1  0
 11 13  1  0
 13 14  1  0
 13 15  2  0
 15 16  1  0
  9 17  1  0
 17 18  2  0
 18 19  1  0
 19 20  2  0
 20 21  1  0
 21 22  2  0
 22 23  1  0
 23 24  1  0
 24 25  2  0
 25 26  1  0
 25 27  1  0
 27 28  2  0
 28 29  1  0
 28 30  1  0
 30 31  2  0
 31 32  1  0
 19 33  1  0
 33 34  1  0
 33 35  1  0
 33 36  1  0
 16  6  2  0
 22 17  1  0
 31 24  1  0
 15  8  1  0
  1 37  1  0
  1 38  1  0
  1 39  1  0
  2 40  1  0
  2 41  1  0
  3 42  1  0
  7 43  1  0
 10 44  1  0
 12 45  1  0
 12 46  1  0
 12 47  1  0
 14 48  1  0
 18 49  1  0
 20 50  1  0
 21 51  1  0
 26 52  1  0
 26 53  1  0
 26 54  1  0
 27 55  1  0
 30 56  1  0
 32 57  1  0
 32 58  1  0
 32 59  1  0
 34 60  1  0
 34 61  1  0
 34 62  1  0
 35 63  1  0
 35 64  1  0
 35 65  1  0
 36 66  1  0
M  END
>  <_MoleculeID>  (253) 
smi27

>  <_InputIndex>  (253) 
27

>  <_InputSMILES>  (253) 
CCNC(=O)c1cc2c(cn(C)c(O)c2n1)-c1cc(ccc1Oc1c(C)cc(F)cc1C)C(C)(C)O

>  <_InputInChIKey>  (253) 
LQPFCYWRBQRRGE-UHFFFAOYSA-N

>  <_SMILES>  (253) 
CCNC(=O)c1cc2c(-c3cc(C(C)(C)O)ccc3Oc3c(C)cc(F)cc3C)cn(C)c(O)c-2n1

>  <_InChIKey>  (253) 
LQPFCYWRBQRRGE-UHFFFAOYSA-N

$$$$
smi27_conf9
     RDKit          3D

 66 69  0  0  0  0  0  0  0  0999 V2000
   -0.5649   -0.0000    1.4124 C   0  0  0  0  0  0  0  0  0  0  0  0
    0.0000    0.0000    0.0000 C   0  0  0  0  0  0  0  0  0  0  0  0
    1.4360    0.0000    0.0000 N   0  0  0  0  0  0  0  0  0  0  0  0
    2.1778    1.1542    0.2035 C   0  0  0  0  0  0  0  0  0  0  0  0
    1.6766    2.2597    0.3984 O   0  0  0  0  0  0  0  0  0  0  0  0
    3.6549    0.9810    0.1303 C   0  0  0  0  0  0  0  0  0  0  0  0
    4.4085    1.7071   -0.9041 C   0  0  0  0  0  0  0  0  0  0  0  0
    5.6495    1.2965   -0.6412 C   0  0  0  0  0  0  0  0  0  0  0  0
    6.8971    1.6376   -1.2997 C   0  0  0  0  0  0  0  0  0  0  0  0
    8.0053    1.0533   -0.7985 C   0  0  0  0  0  0  0  0  0  0  0  0
    7.9699    0.1802    0.2771 N   0  0  0  0  0  0  0  0  0  0  0  0
    9.2057   -0.4020    0.7510 C   0  0  0  0  0  0  0  0  0  0  0  0
    6.7838   -0.1489    0.9090 C   0  0  0  0  0  0  0  0  0  0  0  0
    6.9074   -1.0256    1.9584 O   0  0  0  0  0  0  0  0  0  0  0  0
    5.6241    0.3775    0.4887 C   0  0  0  0  0  0  0  0  0  0  0  0
    4.3418    0.2193    0.9300 N   0  0  0  0  0  0  0  0  0  0  0  0
    6.9301    2.5510   -2.4241 C   0  0  0  0  0  0  0  0  0  0  0  0
    6.2388    2.2545   -3.6015 C   0  0  0  0  0  0  0  0  0  0  0  0
    6.2650    3.1340   -4.6940 C   0  0  0  0  0  0  0  0  0  0  0  0
    6.9819    4.3400   -4.6576 C   0  0  0  0  0  0  0  0  0  0  0  0
    7.6780    4.5990   -3.4611 C   0  0  0  0  0  0  0  0  0  0  0  0
    7.6672    3.7327   -2.3593 C   0  0  0  0  0  0  0  0  0  0  0  0
    8.3691    4.0406   -1.2165 O   0  0  0  0  0  0  0  0  0  0  0  0
    9.0691    5.2252   -1.2165 C   0  0  0  0  0  0  0  0  0  0  0  0
   10.3924    5.2696   -1.6538 C   0  0  0  0  0  0  0  0  0  0  0  0
   11.0590    4.0266   -2.1217 C   0  0  0  0  0  0  0  0  0  0  0  0
   11.0820    6.4897   -1.6394 C   0  0  0  0  0  0  0  0  0  0  0  0
   10.5060    7.7006   -1.2090 C   0  0  0  0  0  0  0  0  0  0  0  0
   11.1887    8.8559   -1.2085 F   0  0  0  0  0  0  0  0  0  0  0  0
    9.1681    7.6220   -0.7922 C   0  0  0  0  0  0  0  0  0  0  0  0
    8.4608    6.4107   -0.7961 C   0  0  0  0  0  0  0  0  0  0  0  0
    7.0441    6.4072   -0.3478 C   0  0  0  0  0  0  0  0  0  0  0  0
    5.5054    2.7299   -5.9055 C   0  0  0  0  0  0  0  0  0  0  0  0
    4.3938    3.7666   -6.2653 C   0  0  0  0  0  0  0  0  0  0  0  0
    6.4616    2.4162   -7.1254 C   0  0  0  0  0  0  0  0  0  0  0  0
    4.8208    1.4974   -5.5980 O   0  0  0  0  0  0  0  0  0  0  0  0
   -1.6586   -0.0202    1.3838 H   0  0  0  0  0  0  0  0  0  0  0  0
   -0.2551    0.8896    1.9689 H   0  0  0  0  0  0  0  0  0  0  0  0
   -0.2206   -0.8774    1.9699 H   0  0  0  0  0  0  0  0  0  0  0  0
   -0.3639   -0.8973   -0.5131 H   0  0  0  0  0  0  0  0  0  0  0  0
   -0.3822    0.8403   -0.5775 H   0  0  0  0  0  0  0  0  0  0  0  0
    1.8977   -0.8737   -0.2272 H   0  0  0  0  0  0  0  0  0  0  0  0
    4.0263    2.3772   -1.6505 H   0  0  0  0  0  0  0  0  0  0  0  0
    8.9969    1.2232   -1.1980 H   0  0  0  0  0  0  0  0  0  0  0  0
   10.0383   -0.0375    0.1441 H   0  0  0  0  0  0  0  0  0  0  0  0
    9.1315   -1.4890    0.6657 H   0  0  0  0  0  0  0  0  0  0  0  0
    9.3489   -0.1076    1.7937 H   0  0  0  0  0  0  0  0  0  0  0  0
    6.0310   -1.1986    2.3394 H   0  0  0  0  0  0  0  0  0  0  0  0
    5.6714    1.3305   -3.6861 H   0  0  0  0  0  0  0  0  0  0  0  0
    7.0061    5.0220   -5.4971 H   0  0  0  0  0  0  0  0  0  0  0  0
    8.2541    5.5207   -3.3898 H   0  0  0  0  0  0  0  0  0  0  0  0
   12.0902    4.2355   -2.4216 H   0  0  0  0  0  0  0  0  0  0  0  0
   10.5255    3.5910   -2.9719 H   0  0  0  0  0  0  0  0  0  0  0  0
   11.0848    3.2721   -1.3285 H   0  0  0  0  0  0  0  0  0  0  0  0
   12.1170    6.5038   -1.9785 H   0  0  0  0  0  0  0  0  0  0  0  0
    8.6319    8.5067   -0.4578 H   0  0  0  0  0  0  0  0  0  0  0  0
    6.7319    7.4152   -0.0592 H   0  0  0  0  0  0  0  0  0  0  0  0
    6.9037    5.7364    0.5051 H   0  0  0  0  0  0  0  0  0  0  0  0
    6.3796    6.0647   -1.1480 H   0  0  0  0  0  0  0  0  0  0  0  0
    3.8053    3.4174   -7.1207 H   0  0  0  0  0  0  0  0  0  0  0  0
    4.8320    4.7387   -6.5120 H   0  0  0  0  0  0  0  0  0  0  0  0
    3.6987    3.8932   -5.4278 H   0  0  0  0  0  0  0  0  0  0  0  0
    5.8800    2.0604   -7.9824 H   0  0  0  0  0  0  0  0  0  0  0  0
    7.1687    1.6227   -6.8600 H   0  0  0  0  0  0  0  0  0  0  0  0
    7.0197    3.3107   -7.4183 H   0  0  0  0  0  0  0  0  0  0  0  0
    4.3322    1.2228   -6.3928 H   0  0  0  0  0  0  0  0  0  0  0  0
  1  2  1  0
  2  3  1  0
  3  4  1  0
  4  5  2  0
  4  6  1  0
  6  7  1  0
  7  8  2  0
  8  9  1  0
  9 10  2  0
 10 11  1  0
 11 12  1  0
 11 13  1  0
 13 14  1  0
 13 15  2  0
 15 16  1  0
  9 17  1  0
 17 18  2  0
 18 19  1  0
 19 20  2  0
 20 21  1  0
 21 22  2  0
 22 23  1  0
 23 24  1  0
 24 25  2  0
 25 26  1  0
 25 27  1  0
 27 28  2  0
 28 29  1  0
 28 30  1  0
 30 31  2  0
 31 32  1  0
 19 33  1  0
 33 34  1  0
 33 35  1  0
 33 36  1  0
 16  6  2  0
 22 17  1  0
 31 24  1  0
 15  8  1  0
  1 37  1  0
  1 38  1  0
  1 39  1  0
  2 40  1  0
  2 41  1  0
  3 42  1  0
  7 43  1  0
 10 44  1  0
 12 45  1  0
 12 46  1  0
 12 47  1  0
 14 48  1  0
 18 49  1  0
 20 50  1  0
 21 51  1  0
 26 52  1  0
 26 53  1  0
 26 54  1  0
 27 55  1  0
 30 56  1  0
 32 57  1  0
 32 58  1  0
 32 59  1  0
 34 60  1  0
 34 61  1  0
 34 62  1  0
 35 63  1  0
 35 64  1  0
 35 65  1  0
 36 66  1  0
M  END
>  <_MoleculeID>  (254) 
smi27

>  <_InputIndex>  (254) 
27

>  <_InputSMILES>  (254) 
CCNC(=O)c1cc2c(cn(C)c(O)c2n1)-c1cc(ccc1Oc1c(C)cc(F)cc1C)C(C)(C)O

>  <_InputInChIKey>  (254) 
LQPFCYWRBQRRGE-UHFFFAOYSA-N

>  <_SMILES>  (254) 
CCNC(=O)c1cc2c(-c3cc(C(C)(C)O)ccc3Oc3c(C)cc(F)cc3C)cn(C)c(O)c-2n1

>  <_InChIKey>  (254) 
LQPFCYWRBQRRGE-UHFFFAOYSA-N

$$$$
smi28_conf0
     RDKit          3D

 69 73  0  0  0  0  0  0  0  0999 V2000
   -0.5649    0.0000    1.4124 C   0  0  0  0  0  0  0  0  0  0  0  0
    0.0000    0.0000    0.0000 C   0  0  0  0  0  0  0  0  0  0  0  0
    1.4510   -0.0000    0.0000 N   0  0  0  0  0  0  0  0  0  0  0  0
    1.9724   -0.4693   -1.2895 C   0  0  0  0  0  0  0  0  0  0  0  0
    3.5051   -0.4662   -1.2927 C   0  0  0  0  0  0  0  0  0  0  0  0
    4.0259    0.8712   -0.9847 N   0  0  0  0  0  0  0  0  0  0  0  0
    5.4769    0.8722   -0.9853 C   0  0  0  0  0  0  0  0  0  0  0  0
    6.1083    0.7083   -2.3205 C   0  0  0  0  0  0  0  0  0  0  0  0
    6.4175    1.8063   -3.1211 C   0  0  0  0  0  0  0  0  0  0  0  0
    7.0206    1.5777   -4.3642 C   0  0  0  0  0  0  0  0  0  0  0  0
    7.2770    0.2701   -4.7812 C   0  0  0  0  0  0  0  0  0  0  0  0
    7.8692   -0.0123   -6.0158 N   0  0  0  0  0  0  0  0  0  0  0  0
    8.2050   -1.2320   -6.6107 C   0  0  0  0  0  0  0  0  0  0  0  0
    8.7739   -1.1695   -7.8299 N   0  0  0  0  0  0  0  0  0  0  0  0
    9.1048   -2.3518   -8.4025 C   0  0  0  0  0  0  0  0  0  0  0  0
    8.8496   -3.5620   -7.7751 C   0  0  0  0  0  0  0  0  0  0  0  0
    9.1186   -4.7553   -8.3268 F   0  0  0  0  0  0  0  0  0  0  0  0
    8.2619   -3.4970   -6.5204 C   0  0  0  0  0  0  0  0  0  0  0  0
    7.9255   -2.3412   -5.9088 N   0  0  0  0  0  0  0  0  0  0  0  0
    7.9566   -4.6928   -5.7863 C   0  0  0  0  0  0  0  0  0  0  0  0
    8.8588   -5.7633   -5.7817 C   0  0  0  0  0  0  0  0  0  0  0  0
    8.6112   -6.9497   -5.0841 C   0  0  0  0  0  0  0  0  0  0  0  0
    9.4998   -7.9552   -5.1023 F   0  0  0  0  0  0  0  0  0  0  0  0
    7.4090   -7.0503   -4.3694 C   0  0  0  0  0  0  0  0  0  0  0  0
    6.9187   -8.0847   -3.6089 N   0  0  0  0  0  0  0  0  0  0  0  0
    5.7526   -7.6704   -3.1559 C   0  0  0  0  0  0  0  0  0  0  0  0
    4.8313   -8.4205   -2.2886 C   0  0  0  0  0  0  0  0  0  0  0  0
    5.4736   -6.4012   -3.6009 N   0  0  0  0  0  0  0  0  0  0  0  0
    4.2838   -5.6393   -3.2979 C   0  0  0  0  0  0  0  0  0  0  0  0
    4.5959   -4.3271   -2.5775 C   0  0  0  0  0  0  0  0  0  0  0  0
    3.3756   -5.4435   -4.5140 C   0  0  0  0  0  0  0  0  0  0  0  0
    6.5209   -5.9814   -4.3809 C   0  0  0  0  0  0  0  0  0  0  0  0
    6.7540   -4.7881   -5.0734 C   0  0  0  0  0  0  0  0  0  0  0  0
    6.9846   -0.7955   -3.9969 N   0  0  0  0  0  0  0  0  0  0  0  0
    6.4083   -0.5547   -2.7984 C   0  0  0  0  0  0  0  0  0  0  0  0
    3.5048    1.3393    0.3053 C   0  0  0  0  0  0  0  0  0  0  0  0
    1.9722    1.3374    0.3074 C   0  0  0  0  0  0  0  0  0  0  0  0
   -1.6586   -0.0202    1.3838 H   0  0  0  0  0  0  0  0  0  0  0  0
   -0.2551    0.8896    1.9689 H   0  0  0  0  0  0  0  0  0  0  0  0
   -0.2206   -0.8774    1.9699 H   0  0  0  0  0  0  0  0  0  0  0  0
   -0.3639   -0.8973   -0.5131 H   0  0  0  0  0  0  0  0  0  0  0  0
   -0.3822    0.8403   -0.5775 H   0  0  0  0  0  0  0  0  0  0  0  0
    1.6005    0.1552   -2.1132 H   0  0  0  0  0  0  0  0  0  0  0  0
    1.6295   -1.4942   -1.4769 H   0  0  0  0  0  0  0  0  0  0  0  0
    3.8482   -0.7776   -2.2868 H   0  0  0  0  0  0  0  0  0  0  0  0
    3.8771   -1.2072   -0.5719 H   0  0  0  0  0  0  0  0  0  0  0  0
    5.8593    0.1293   -0.2750 H   0  0  0  0  0  0  0  0  0  0  0  0
    5.8037    1.8412   -0.5871 H   0  0  0  0  0  0  0  0  0  0  0  0
    6.2065    2.8158   -2.7856 H   0  0  0  0  0  0  0  0  0  0  0  0
    7.2890    2.4149   -5.0031 H   0  0  0  0  0  0  0  0  0  0  0  0
    8.1551    0.7851   -6.5796 H   0  0  0  0  0  0  0  0  0  0  0  0
    9.5601   -2.2975   -9.3835 H   0  0  0  0  0  0  0  0  0  0  0  0
    9.7871   -5.6685   -6.3419 H   0  0  0  0  0  0  0  0  0  0  0  0
    5.2448   -9.4056   -2.0530 H   0  0  0  0  0  0  0  0  0  0  0  0
    3.8579   -8.5523   -2.7705 H   0  0  0  0  0  0  0  0  0  0  0  0
    4.6617   -7.8915   -1.3449 H   0  0  0  0  0  0  0  0  0  0  0  0
    3.6933   -6.2334   -2.5937 H   0  0  0  0  0  0  0  0  0  0  0  0
    3.6714   -3.8533   -2.2301 H   0  0  0  0  0  0  0  0  0  0  0  0
    5.1102   -3.6077   -3.2198 H   0  0  0  0  0  0  0  0  0  0  0  0
    5.2308   -4.5051   -1.7024 H   0  0  0  0  0  0  0  0  0  0  0  0
    2.4127   -5.0222   -4.2047 H   0  0  0  0  0  0  0  0  0  0  0  0
    3.1785   -6.3998   -5.0111 H   0  0  0  0  0  0  0  0  0  0  0  0
    3.8027   -4.7640   -5.2553 H   0  0  0  0  0  0  0  0  0  0  0  0
    6.0200   -3.9920   -5.0412 H   0  0  0  0  0  0  0  0  0  0  0  0
    6.1873   -1.4380   -2.2081 H   0  0  0  0  0  0  0  0  0  0  0  0
    3.8758    0.7133    1.1284 H   0  0  0  0  0  0  0  0  0  0  0  0
    3.8483    2.3637    0.4942 H   0  0  0  0  0  0  0  0  0  0  0  0
    1.6013    2.0780   -0.4142 H   0  0  0  0  0  0  0  0  0  0  0  0
    1.6286    1.6497    1.3011 H   0  0  0  0  0  0  0  0  0  0  0  0
  1  2  1  0
  2  3  1  0
  3  4  1  0
  4  5  1  0
  5  6  1  0
  6  7  1  0
  7  8  1  0
  8  9  2  0
  9 10  1  0
 10 11  2  0
 11 12  1  0
 12 13  1  0
 13 14  2  0
 14 15  1  0
 15 16  2  0
 16 17  1  0
 16 18  1  0
 18 19  2  0
 18 20  1  0
 20 21  2  0
 21 22  1  0
 22 23  1  0
 22 24  2  0
 24 25  1  0
 25 26  2  0
 26 27  1  0
 26 28  1  0
 28 29  1  0
 29 30  1  0
 29 31  1  0
 28 32  1  0
 32 33  2  0
 11 34  1  0
 34 35  2  0
  6 36  1  0
 36 37  1  0
 37  3  1  0
 35  8  1  0
 19 13  1  0
 33 20  1  0
 32 24  1  0
  1 38  1  0
  1 39  1  0
  1 40  1  0
  2 41  1  0
  2 42  1  0
  4 43  1  0
  4 44  1  0
  5 45  1  0
  5 46  1  0
  7 47  1  0
  7 48  1  0
  9 49  1  0
 10 50  1  0
 12 51  1  0
 15 52  1  0
 21 53  1  0
 27 54  1  0
 27 55  1  0
 27 56  1  0
 29 57  1  0
 30 58  1  0
 30 59  1  0
 30 60  1  0
 31 61  1  0
 31 62  1  0
 31 63  1  0
 33 64  1  0
 35 65  1  0
 36 66  1  0
 36 67  1  0
 37 68  1  0
 37 69  1  0
M  END
>  <_MoleculeID>  (255) 
smi28

>  <_InputIndex>  (255) 
28

>  <_InputSMILES>  (255) 
CCN1CCN(Cc2ccc(Nc3ncc(F)c(n3)-c3cc(F)c4nc(C)n(C(C)C)c4c3)nc2)CC1

>  <_InputInChIKey>  (255) 
UZWDCWONPYILKI-UHFFFAOYSA-N

>  <_SMILES>  (255) 
CCN1CCN(Cc2ccc(Nc3ncc(F)c(-c4cc(F)c5nc(C)n(C(C)C)c5c4)n3)nc2)CC1

>  <_InChIKey>  (255) 
UZWDCWONPYILKI-UHFFFAOYSA-N

$$$$
smi28_conf1
     RDKit          3D

 69 73  0  0  0  0  0  0  0  0999 V2000
   -0.5649    0.0000    1.4124 C   0  0  0  0  0  0  0  0  0  0  0  0
    0.0000    0.0000    0.0000 C   0  0  0  0  0  0  0  0  0  0  0  0
    1.4510   -0.0000    0.0000 N   0  0  0  0  0  0  0  0  0  0  0  0
    1.9724   -0.4693   -1.2895 C   0  0  0  0  0  0  0  0  0  0  0  0
    3.5051   -0.4662   -1.2927 C   0  0  0  0  0  0  0  0  0  0  0  0
    4.0259    0.8712   -0.9847 N   0  0  0  0  0  0  0  0  0  0  0  0
    5.4769    0.8722   -0.9853 C   0  0  0  0  0  0  0  0  0  0  0  0
    6.1079    2.2157   -0.9157 C   0  0  0  0  0  0  0  0  0  0  0  0
    6.4172    2.9371   -2.0673 C   0  0  0  0  0  0  0  0  0  0  0  0
    7.0023    4.2017   -1.9262 C   0  0  0  0  0  0  0  0  0  0  0  0
    7.2809    4.6993   -0.6517 C   0  0  0  0  0  0  0  0  0  0  0  0
    7.8715    5.9513   -0.4568 N   0  0  0  0  0  0  0  0  0  0  0  0
    8.2268    6.6214    0.7176 C   0  0  0  0  0  0  0  0  0  0  0  0
    8.7878    7.8368    0.5697 N   0  0  0  0  0  0  0  0  0  0  0  0
    9.1256    8.4880    1.7086 C   0  0  0  0  0  0  0  0  0  0  0  0
    8.9247    7.9217    2.9586 C   0  0  0  0  0  0  0  0  0  0  0  0
    9.2872    8.5122    4.1079 F   0  0  0  0  0  0  0  0  0  0  0  0
    8.3364    6.6658    2.9820 C   0  0  0  0  0  0  0  0  0  0  0  0
    7.9749    5.9863    1.8727 N   0  0  0  0  0  0  0  0  0  0  0  0
    8.0847    5.9925    4.2251 C   0  0  0  0  0  0  0  0  0  0  0  0
    7.6063    6.7101    5.3278 C   0  0  0  0  0  0  0  0  0  0  0  0
    7.3447    6.1042    6.5607 C   0  0  0  0  0  0  0  0  0  0  0  0
    6.8861    6.8244    7.5961 F   0  0  0  0  0  0  0  0  0  0  0  0
    7.5770    4.7262    6.6754 C   0  0  0  0  0  0  0  0  0  0  0  0
    7.4081    3.8898    7.7527 N   0  0  0  0  0  0  0  0  0  0  0  0
    7.7682    2.6936    7.3330 C   0  0  0  0  0  0  0  0  0  0  0  0
    7.7662    1.4504    8.1193 C   0  0  0  0  0  0  0  0  0  0  0  0
    8.1657    2.7312    6.0188 N   0  0  0  0  0  0  0  0  0  0  0  0
    8.6225    1.6038    5.2389 C   0  0  0  0  0  0  0  0  0  0  0  0
    7.7486    1.3487    4.0102 C   0  0  0  0  0  0  0  0  0  0  0  0
   10.1125    1.6794    4.8980 C   0  0  0  0  0  0  0  0  0  0  0  0
    8.0518    4.0239    5.5742 C   0  0  0  0  0  0  0  0  0  0  0  0
    8.3182    4.6151    4.3343 C   0  0  0  0  0  0  0  0  0  0  0  0
    6.9702    4.0003    0.4668 N   0  0  0  0  0  0  0  0  0  0  0  0
    6.4009    2.7845    0.3107 C   0  0  0  0  0  0  0  0  0  0  0  0
    3.5048    1.3393    0.3053 C   0  0  0  0  0  0  0  0  0  0  0  0
    1.9722    1.3374    0.3074 C   0  0  0  0  0  0  0  0  0  0  0  0
   -1.6586   -0.0202    1.3838 H   0  0  0  0  0  0  0  0  0  0  0  0
   -0.2551    0.8896    1.9689 H   0  0  0  0  0  0  0  0  0  0  0  0
   -0.2206   -0.8774    1.9699 H   0  0  0  0  0  0  0  0  0  0  0  0
   -0.3639   -0.8973   -0.5131 H   0  0  0  0  0  0  0  0  0  0  0  0
   -0.3822    0.8403   -0.5775 H   0  0  0  0  0  0  0  0  0  0  0  0
    1.6005    0.1552   -2.1132 H   0  0  0  0  0  0  0  0  0  0  0  0
    1.6295   -1.4942   -1.4769 H   0  0  0  0  0  0  0  0  0  0  0  0
    3.8482   -0.7776   -2.2868 H   0  0  0  0  0  0  0  0  0  0  0  0
    3.8771   -1.2072   -0.5719 H   0  0  0  0  0  0  0  0  0  0  0  0
    5.8585    0.3018   -1.8407 H   0  0  0  0  0  0  0  0  0  0  0  0
    5.8049    0.3119   -0.1006 H   0  0  0  0  0  0  0  0  0  0  0  0
    6.2001    2.5343   -3.0506 H   0  0  0  0  0  0  0  0  0  0  0  0
    7.2390    4.7950   -2.8055 H   0  0  0  0  0  0  0  0  0  0  0  0
    8.0434    6.5111   -1.2890 H   0  0  0  0  0  0  0  0  0  0  0  0
    9.5783    9.4639    1.5856 H   0  0  0  0  0  0  0  0  0  0  0  0
    7.4316    7.7791    5.2215 H   0  0  0  0  0  0  0  0  0  0  0  0
    7.4156    1.6426    9.1376 H   0  0  0  0  0  0  0  0  0  0  0  0
    8.7686    1.0145    8.1675 H   0  0  0  0  0  0  0  0  0  0  0  0
    7.1041    0.7026    7.6703 H   0  0  0  0  0  0  0  0  0  0  0  0
    8.5187    0.7150    5.8688 H   0  0  0  0  0  0  0  0  0  0  0  0
    8.0293    0.4040    3.5319 H   0  0  0  0  0  0  0  0  0  0  0  0
    7.8419    2.1361    3.2580 H   0  0  0  0  0  0  0  0  0  0  0  0
    6.6918    1.2810    4.2916 H   0  0  0  0  0  0  0  0  0  0  0  0
   10.4518    0.7310    4.4669 H   0  0  0  0  0  0  0  0  0  0  0  0
   10.7087    1.8708    5.7971 H   0  0  0  0  0  0  0  0  0  0  0  0
   10.3408    2.4642    4.1731 H   0  0  0  0  0  0  0  0  0  0  0  0
    8.6872    4.0102    3.5149 H   0  0  0  0  0  0  0  0  0  0  0  0
    6.1754    2.2599    1.2334 H   0  0  0  0  0  0  0  0  0  0  0  0
    3.8758    0.7133    1.1284 H   0  0  0  0  0  0  0  0  0  0  0  0
    3.8483    2.3637    0.4942 H   0  0  0  0  0  0  0  0  0  0  0  0
    1.6013    2.0780   -0.4142 H   0  0  0  0  0  0  0  0  0  0  0  0
    1.6286    1.6497    1.3011 H   0  0  0  0  0  0  0  0  0  0  0  0
  1  2  1  0
  2  3  1  0
  3  4  1  0
  4  5  1  0
  5  6  1  0
  6  7  1  0
  7  8  1  0
  8  9  2  0
  9 10  1  0
 10 11  2  0
 11 12  1  0
 12 13  1  0
 13 14  2  0
 14 15  1  0
 15 16  2  0
 16 17  1  0
 16 18  1  0
 18 19  2  0
 18 20  1  0
 20 21  2  0
 21 22  1  0
 22 23  1  0
 22 24  2  0
 24 25  1  0
 25 26  2  0
 26 27  1  0
 26 28  1  0
 28 29  1  0
 29 30  1  0
 29 31  1  0
 28 32  1  0
 32 33  2  0
 11 34  1  0
 34 35  2  0
  6 36  1  0
 36 37  1  0
 37  3  1  0
 35  8  1  0
 19 13  1  0
 33 20  1  0
 32 24  1  0
  1 38  1  0
  1 39  1  0
  1 40  1  0
  2 41  1  0
  2 42  1  0
  4 43  1  0
  4 44  1  0
  5 45  1  0
  5 46  1  0
  7 47  1  0
  7 48  1  0
  9 49  1  0
 10 50  1  0
 12 51  1  0
 15 52  1  0
 21 53  1  0
 27 54  1  0
 27 55  1  0
 27 56  1  0
 29 57  1  0
 30 58  1  0
 30 59  1  0
 30 60  1  0
 31 61  1  0
 31 62  1  0
 31 63  1  0
 33 64  1  0
 35 65  1  0
 36 66  1  0
 36 67  1  0
 37 68  1  0
 37 69  1  0
M  END
>  <_MoleculeID>  (256) 
smi28

>  <_InputIndex>  (256) 
28

>  <_InputSMILES>  (256) 
CCN1CCN(Cc2ccc(Nc3ncc(F)c(n3)-c3cc(F)c4nc(C)n(C(C)C)c4c3)nc2)CC1

>  <_InputInChIKey>  (256) 
UZWDCWONPYILKI-UHFFFAOYSA-N

>  <_SMILES>  (256) 
CCN1CCN(Cc2ccc(Nc3ncc(F)c(-c4cc(F)c5nc(C)n(C(C)C)c5c4)n3)nc2)CC1

>  <_InChIKey>  (256) 
UZWDCWONPYILKI-UHFFFAOYSA-N

$$$$
smi28_conf2
     RDKit          3D

 69 73  0  0  0  0  0  0  0  0999 V2000
   -0.5649    0.0000    1.4124 C   0  0  0  0  0  0  0  0  0  0  0  0
    0.0000    0.0000    0.0000 C   0  0  0  0  0  0  0  0  0  0  0  0
    1.4510    0.0000    0.0000 N   0  0  0  0  0  0  0  0  0  0  0  0
    1.9726    1.3513    0.2383 C   0  0  0  0  0  0  0  0  0  0  0  0
    3.5052    1.3533    0.2357 C   0  0  0  0  0  0  0  0  0  0  0  0
    4.0269    0.8172   -1.0274 N   0  0  0  0  0  0  0  0  0  0  0  0
    5.4779    0.8163   -1.0267 C   0  0  0  0  0  0  0  0  0  0  0  0
    6.1107    2.1590   -1.0964 C   0  0  0  0  0  0  0  0  0  0  0  0
    6.4209    2.8800    0.0552 C   0  0  0  0  0  0  0  0  0  0  0  0
    7.0253    4.1355   -0.0853 C   0  0  0  0  0  0  0  0  0  0  0  0
    7.2820    4.6433   -1.3604 C   0  0  0  0  0  0  0  0  0  0  0  0
    7.8754    5.8940   -1.5553 N   0  0  0  0  0  0  0  0  0  0  0  0
    8.2116    6.5731   -2.7301 C   0  0  0  0  0  0  0  0  0  0  0  0
    8.7818    7.7842   -2.5820 N   0  0  0  0  0  0  0  0  0  0  0  0
    9.1132    8.4383   -3.7211 C   0  0  0  0  0  0  0  0  0  0  0  0
    8.8571    7.8979   -4.9724 C   0  0  0  0  0  0  0  0  0  0  0  0
    9.1266    8.5320   -6.1241 F   0  0  0  0  0  0  0  0  0  0  0  0
    8.2682    6.6423   -4.9958 C   0  0  0  0  0  0  0  0  0  0  0  0
    7.9313    5.9513   -3.8860 N   0  0  0  0  0  0  0  0  0  0  0  0
    7.9620    5.9946   -6.2403 C   0  0  0  0  0  0  0  0  0  0  0  0
    8.1639    4.6167   -6.3828 C   0  0  0  0  0  0  0  0  0  0  0  0
    7.8824    3.9364   -7.5718 C   0  0  0  0  0  0  0  0  0  0  0  0
    8.0884    2.6141   -7.6716 F   0  0  0  0  0  0  0  0  0  0  0  0
    7.3805    4.6807   -8.6488 C   0  0  0  0  0  0  0  0  0  0  0  0
    7.0240    4.2740   -9.9123 N   0  0  0  0  0  0  0  0  0  0  0  0
    6.6139    5.3619  -10.5327 C   0  0  0  0  0  0  0  0  0  0  0  0
    6.1246    5.4509  -11.9171 C   0  0  0  0  0  0  0  0  0  0  0  0
    6.6953    6.4588   -9.7102 N   0  0  0  0  0  0  0  0  0  0  0  0
    6.3277    7.8113  -10.0621 C   0  0  0  0  0  0  0  0  0  0  0  0
    5.2201    8.3692   -9.1675 C   0  0  0  0  0  0  0  0  0  0  0  0
    7.5328    8.7491  -10.1641 C   0  0  0  0  0  0  0  0  0  0  0  0
    7.1838    6.0480   -8.4961 C   0  0  0  0  0  0  0  0  0  0  0  0
    7.4601    6.7430   -7.3135 C   0  0  0  0  0  0  0  0  0  0  0  0
    6.9886    3.9362   -2.4785 N   0  0  0  0  0  0  0  0  0  0  0  0
    6.4110    2.7243   -2.3225 C   0  0  0  0  0  0  0  0  0  0  0  0
    3.5049   -0.5341   -1.2651 C   0  0  0  0  0  0  0  0  0  0  0  0
    1.9724   -0.5349   -1.2637 C   0  0  0  0  0  0  0  0  0  0  0  0
   -1.6586   -0.0202    1.3838 H   0  0  0  0  0  0  0  0  0  0  0  0
   -0.2551    0.8896    1.9689 H   0  0  0  0  0  0  0  0  0  0  0  0
   -0.2206   -0.8774    1.9699 H   0  0  0  0  0  0  0  0  0  0  0  0
   -0.3639   -0.8973   -0.5131 H   0  0  0  0  0  0  0  0  0  0  0  0
   -0.3822    0.8403   -0.5775 H   0  0  0  0  0  0  0  0  0  0  0  0
    1.6014    2.0540   -0.5202 H   0  0  0  0  0  0  0  0  0  0  0  0
    1.6292    1.7142    1.2147 H   0  0  0  0  0  0  0  0  0  0  0  0
    3.8487    2.3863    0.3697 H   0  0  0  0  0  0  0  0  0  0  0  0
    3.8763    0.7722    1.0910 H   0  0  0  0  0  0  0  0  0  0  0  0
    5.8595    0.1596   -1.8178 H   0  0  0  0  0  0  0  0  0  0  0  0
    5.8044    0.3505   -0.0882 H   0  0  0  0  0  0  0  0  0  0  0  0
    6.2097    2.4744    1.0387 H   0  0  0  0  0  0  0  0  0  0  0  0
    7.2944    4.7136    0.7947 H   0  0  0  0  0  0  0  0  0  0  0  0
    8.1620    6.4000   -0.7202 H   0  0  0  0  0  0  0  0  0  0  0  0
    9.5695    9.4126   -3.5980 H   0  0  0  0  0  0  0  0  0  0  0  0
    8.5543    4.0541   -5.5368 H   0  0  0  0  0  0  0  0  0  0  0  0
    6.1416    4.4658  -12.3927 H   0  0  0  0  0  0  0  0  0  0  0  0
    6.7383    6.1382  -12.5071 H   0  0  0  0  0  0  0  0  0  0  0  0
    5.0948    5.8219  -11.9468 H   0  0  0  0  0  0  0  0  0  0  0  0
    5.9069    7.7767  -11.0717 H   0  0  0  0  0  0  0  0  0  0  0  0
    4.8633    9.3293   -9.5559 H   0  0  0  0  0  0  0  0  0  0  0  0
    5.5545    8.5363   -8.1405 H   0  0  0  0  0  0  0  0  0  0  0  0
    4.3662    7.6835   -9.1319 H   0  0  0  0  0  0  0  0  0  0  0  0
    7.2321    9.7071  -10.6026 H   0  0  0  0  0  0  0  0  0  0  0  0
    8.3098    8.3170  -10.8044 H   0  0  0  0  0  0  0  0  0  0  0  0
    7.9832    8.9654   -9.1926 H   0  0  0  0  0  0  0  0  0  0  0  0
    7.2839    7.8105   -7.2599 H   0  0  0  0  0  0  0  0  0  0  0  0
    6.1893    2.1979   -3.2452 H   0  0  0  0  0  0  0  0  0  0  0  0
    3.8751   -1.2364   -0.5058 H   0  0  0  0  0  0  0  0  0  0  0  0
    3.8488   -0.8978   -2.2410 H   0  0  0  0  0  0  0  0  0  0  0  0
    1.6021    0.0477   -2.1183 H   0  0  0  0  0  0  0  0  0  0  0  0
    1.6282   -1.5674   -1.3992 H   0  0  0  0  0  0  0  0  0  0  0  0
  1  2  1  0
  2  3  1  0
  3  4  1  0
  4  5  1  0
  5  6  1  0
  6  7  1  0
  7  8  1  0
  8  9  2  0
  9 10  1  0
 10 11  2  0
 11 12  1  0
 12 13  1  0
 13 14  2  0
 14 15  1  0
 15 16  2  0
 16 17  1  0
 16 18  1  0
 18 19  2  0
 18 20  1  0
 20 21  2  0
 21 22  1  0
 22 23  1  0
 22 24  2  0
 24 25  1  0
 25 26  2  0
 26 27  1  0
 26 28  1  0
 28 29  1  0
 29 30  1  0
 29 31  1  0
 28 32  1  0
 32 33  2  0
 11 34  1  0
 34 35  2  0
  6 36  1  0
 36 37  1  0
 37  3  1  0
 35  8  1  0
 19 13  1  0
 33 20  1  0
 32 24  1  0
  1 38  1  0
  1 39  1  0
  1 40  1  0
  2 41  1  0
  2 42  1  0
  4 43  1  0
  4 44  1  0
  5 45  1  0
  5 46  1  0
  7 47  1  0
  7 48  1  0
  9 49  1  0
 10 50  1  0
 12 51  1  0
 15 52  1  0
 21 53  1  0
 27 54  1  0
 27 55  1  0
 27 56  1  0
 29 57  1  0
 30 58  1  0
 30 59  1  0
 30 60  1  0
 31 61  1  0
 31 62  1  0
 31 63  1  0
 33 64  1  0
 35 65  1  0
 36 66  1  0
 36 67  1  0
 37 68  1  0
 37 69  1  0
M  END
>  <_MoleculeID>  (257) 
smi28

>  <_InputIndex>  (257) 
28

>  <_InputSMILES>  (257) 
CCN1CCN(Cc2ccc(Nc3ncc(F)c(n3)-c3cc(F)c4nc(C)n(C(C)C)c4c3)nc2)CC1

>  <_InputInChIKey>  (257) 
UZWDCWONPYILKI-UHFFFAOYSA-N

>  <_SMILES>  (257) 
CCN1CCN(Cc2ccc(Nc3ncc(F)c(-c4cc(F)c5nc(C)n(C(C)C)c5c4)n3)nc2)CC1

>  <_InChIKey>  (257) 
UZWDCWONPYILKI-UHFFFAOYSA-N

$$$$
smi28_conf3
     RDKit          3D

 69 73  0  0  0  0  0  0  0  0999 V2000
   -0.5649    0.0000    1.4124 C   0  0  0  0  0  0  0  0  0  0  0  0
    0.0000    0.0000    0.0000 C   0  0  0  0  0  0  0  0  0  0  0  0
    1.4510    0.0000   -0.0000 N   0  0  0  0  0  0  0  0  0  0  0  0
    1.9726    0.4693   -1.2894 C   0  0  0  0  0  0  0  0  0  0  0  0
    3.5052    0.4671   -1.2918 C   0  0  0  0  0  0  0  0  0  0  0  0
    4.0269   -0.8699   -0.9832 N   0  0  0  0  0  0  0  0  0  0  0  0
    5.4779   -0.8694   -0.9822 C   0  0  0  0  0  0  0  0  0  0  0  0
    6.1107   -0.7048   -2.3166 C   0  0  0  0  0  0  0  0  0  0  0  0
    6.4209    0.5545   -2.8267 C   0  0  0  0  0  0  0  0  0  0  0  0
    7.0253    0.6341   -4.0875 C   0  0  0  0  0  0  0  0  0  0  0  0
    7.2820   -0.5335   -4.8090 C   0  0  0  0  0  0  0  0  0  0  0  0
    7.8754   -0.5082   -6.0745 N   0  0  0  0  0  0  0  0  0  0  0  0
    8.2116   -1.5472   -6.9473 C   0  0  0  0  0  0  0  0  0  0  0  0
    8.7818   -1.1911   -8.1143 N   0  0  0  0  0  0  0  0  0  0  0  0
    9.1132   -2.1993   -8.9563 C   0  0  0  0  0  0  0  0  0  0  0  0
    8.8571   -3.5254   -8.6414 C   0  0  0  0  0  0  0  0  0  0  0  0
    9.1266   -4.5494   -9.4659 F   0  0  0  0  0  0  0  0  0  0  0  0
    8.2682   -3.7665   -7.4089 C   0  0  0  0  0  0  0  0  0  0  0  0
    7.9313   -2.7935   -6.5357 N   0  0  0  0  0  0  0  0  0  0  0  0
    7.9620   -5.1046   -6.9871 C   0  0  0  0  0  0  0  0  0  0  0  0
    7.4606   -6.0331   -7.9070 C   0  0  0  0  0  0  0  0  0  0  0  0
    7.1461   -7.3481   -7.5496 C   0  0  0  0  0  0  0  0  0  0  0  0
    6.6676   -8.2111   -8.4591 F   0  0  0  0  0  0  0  0  0  0  0  0
    7.3475   -7.7299   -6.2155 C   0  0  0  0  0  0  0  0  0  0  0  0
    7.1262   -8.9391   -5.6010 N   0  0  0  0  0  0  0  0  0  0  0  0
    7.4791   -8.7675   -4.3430 C   0  0  0  0  0  0  0  0  0  0  0  0
    7.4292   -9.7751   -3.2724 C   0  0  0  0  0  0  0  0  0  0  0  0
    7.9202   -7.4851   -4.1251 N   0  0  0  0  0  0  0  0  0  0  0  0
    8.3844   -6.9510   -2.8653 C   0  0  0  0  0  0  0  0  0  0  0  0
    9.8293   -6.4552   -2.9358 C   0  0  0  0  0  0  0  0  0  0  0  0
    7.4317   -5.9109   -2.2716 C   0  0  0  0  0  0  0  0  0  0  0  0
    7.8458   -6.7998   -5.3110 C   0  0  0  0  0  0  0  0  0  0  0  0
    8.1654   -5.4812   -5.6528 C   0  0  0  0  0  0  0  0  0  0  0  0
    6.9886   -1.7573   -4.3068 N   0  0  0  0  0  0  0  0  0  0  0  0
    6.4110   -1.8142   -3.0862 C   0  0  0  0  0  0  0  0  0  0  0  0
    3.5049   -1.3386    0.3063 C   0  0  0  0  0  0  0  0  0  0  0  0
    1.9724   -1.3374    0.3073 C   0  0  0  0  0  0  0  0  0  0  0  0
   -1.6586   -0.0202    1.3838 H   0  0  0  0  0  0  0  0  0  0  0  0
   -0.2551    0.8896    1.9689 H   0  0  0  0  0  0  0  0  0  0  0  0
   -0.2206   -0.8774    1.9699 H   0  0  0  0  0  0  0  0  0  0  0  0
   -0.3639   -0.8973   -0.5131 H   0  0  0  0  0  0  0  0  0  0  0  0
   -0.3822    0.8403   -0.5775 H   0  0  0  0  0  0  0  0  0  0  0  0
    1.6014   -0.1557   -2.1131 H   0  0  0  0  0  0  0  0  0  0  0  0
    1.6292    1.4939   -1.4772 H   0  0  0  0  0  0  0  0  0  0  0  0
    3.8487    0.7784   -2.2858 H   0  0  0  0  0  0  0  0  0  0  0  0
    3.8763    1.2085   -0.5710 H   0  0  0  0  0  0  0  0  0  0  0  0
    5.8595   -1.7625   -0.4729 H   0  0  0  0  0  0  0  0  0  0  0  0
    5.8044   -0.0260   -0.3605 H   0  0  0  0  0  0  0  0  0  0  0  0
    6.2097    1.4526   -2.2565 H   0  0  0  0  0  0  0  0  0  0  0  0
    7.2944    1.6011   -4.5040 H   0  0  0  0  0  0  0  0  0  0  0  0
    8.1620    0.4021   -6.4278 H   0  0  0  0  0  0  0  0  0  0  0  0
    9.5695   -1.9089   -9.8944 H   0  0  0  0  0  0  0  0  0  0  0  0
    7.3102   -5.7200   -8.9385 H   0  0  0  0  0  0  0  0  0  0  0  0
    7.0485  -10.7251   -3.6589 H   0  0  0  0  0  0  0  0  0  0  0  0
    6.7855   -9.4446   -2.4517 H   0  0  0  0  0  0  0  0  0  0  0  0
    8.4258   -9.9556   -2.8560 H   0  0  0  0  0  0  0  0  0  0  0  0
    8.3871   -7.7776   -2.1481 H   0  0  0  0  0  0  0  0  0  0  0  0
   10.1948   -6.2015   -1.9348 H   0  0  0  0  0  0  0  0  0  0  0  0
    9.9371   -5.5636   -3.5586 H   0  0  0  0  0  0  0  0  0  0  0  0
   10.4867   -7.2295   -3.3466 H   0  0  0  0  0  0  0  0  0  0  0  0
    7.7273   -5.6677   -1.2450 H   0  0  0  0  0  0  0  0  0  0  0  0
    6.4055   -6.2938   -2.2428 H   0  0  0  0  0  0  0  0  0  0  0  0
    7.4229   -4.9753   -2.8357 H   0  0  0  0  0  0  0  0  0  0  0  0
    8.5508   -4.8054   -4.8989 H   0  0  0  0  0  0  0  0  0  0  0  0
    6.1893   -2.8142   -2.7281 H   0  0  0  0  0  0  0  0  0  0  0  0
    3.8751   -0.7128    1.1298 H   0  0  0  0  0  0  0  0  0  0  0  0
    3.8488   -2.3629    0.4950 H   0  0  0  0  0  0  0  0  0  0  0  0
    1.6021   -2.0779   -0.4148 H   0  0  0  0  0  0  0  0  0  0  0  0
    1.6282   -1.6501    1.3007 H   0  0  0  0  0  0  0  0  0  0  0  0
  1  2  1  0
  2  3  1  0
  3  4  1  0
  4  5  1  0
  5  6  1  0
  6  7  1  0
  7  8  1  0
  8  9  2  0
  9 10  1  0
 10 11  2  0
 11 12  1  0
 12 13  1  0
 13 14  2  0
 14 15  1  0
 15 16  2  0
 16 17  1  0
 16 18  1  0
 18 19  2  0
 18 20  1  0
 20 21  2  0
 21 22  1  0
 22 23  1  0
 22 24  2  0
 24 25  1  0
 25 26  2  0
 26 27  1  0
 26 28  1  0
 28 29  1  0
 29 30  1  0
 29 31  1  0
 28 32  1  0
 32 33  2  0
 11 34  1  0
 34 35  2  0
  6 36  1  0
 36 37  1  0
 37  3  1  0
 35  8  1  0
 19 13  1  0
 33 20  1  0
 32 24  1  0
  1 38  1  0
  1 39  1  0
  1 40  1  0
  2 41  1  0
  2 42  1  0
  4 43  1  0
  4 44  1  0
  5 45  1  0
  5 46  1  0
  7 47  1  0
  7 48  1  0
  9 49  1  0
 10 50  1  0
 12 51  1  0
 15 52  1  0
 21 53  1  0
 27 54  1  0
 27 55  1  0
 27 56  1  0
 29 57  1  0
 30 58  1  0
 30 59  1  0
 30 60  1  0
 31 61  1  0
 31 62  1  0
 31 63  1  0
 33 64  1  0
 35 65  1  0
 36 66  1  0
 36 67  1  0
 37 68  1  0
 37 69  1  0
M  END
>  <_MoleculeID>  (258) 
smi28

>  <_InputIndex>  (258) 
28

>  <_InputSMILES>  (258) 
CCN1CCN(Cc2ccc(Nc3ncc(F)c(n3)-c3cc(F)c4nc(C)n(C(C)C)c4c3)nc2)CC1

>  <_InputInChIKey>  (258) 
UZWDCWONPYILKI-UHFFFAOYSA-N

>  <_SMILES>  (258) 
CCN1CCN(Cc2ccc(Nc3ncc(F)c(-c4cc(F)c5nc(C)n(C(C)C)c5c4)n3)nc2)CC1

>  <_InChIKey>  (258) 
UZWDCWONPYILKI-UHFFFAOYSA-N

$$$$
smi28_conf4
     RDKit          3D

 69 73  0  0  0  0  0  0  0  0999 V2000
   -0.5649    0.0000    1.4124 C   0  0  0  0  0  0  0  0  0  0  0  0
    0.0000    0.0000    0.0000 C   0  0  0  0  0  0  0  0  0  0  0  0
    1.4510   -0.0000    0.0000 N   0  0  0  0  0  0  0  0  0  0  0  0
    1.9724   -0.4693   -1.2895 C   0  0  0  0  0  0  0  0  0  0  0  0
    3.5051   -0.4662   -1.2927 C   0  0  0  0  0  0  0  0  0  0  0  0
    4.0259    0.8712   -0.9847 N   0  0  0  0  0  0  0  0  0  0  0  0
    5.4769    0.8722   -0.9853 C   0  0  0  0  0  0  0  0  0  0  0  0
    6.1079    2.2157   -0.9157 C   0  0  0  0  0  0  0  0  0  0  0  0
    6.4172    2.9371   -2.0673 C   0  0  0  0  0  0  0  0  0  0  0  0
    7.0023    4.2017   -1.9262 C   0  0  0  0  0  0  0  0  0  0  0  0
    7.2809    4.6993   -0.6517 C   0  0  0  0  0  0  0  0  0  0  0  0
    7.8715    5.9513   -0.4568 N   0  0  0  0  0  0  0  0  0  0  0  0
    8.2268    6.6214    0.7176 C   0  0  0  0  0  0  0  0  0  0  0  0
    7.9712    5.9821    1.8751 N   0  0  0  0  0  0  0  0  0  0  0  0
    8.3220    6.6297    3.0121 C   0  0  0  0  0  0  0  0  0  0  0  0
    8.8927    7.8934    2.9844 C   0  0  0  0  0  0  0  0  0  0  0  0
    9.2117    8.5881    4.0874 F   0  0  0  0  0  0  0  0  0  0  0  0
    9.1090    8.4477    1.7314 C   0  0  0  0  0  0  0  0  0  0  0  0
    8.7846    7.8336    0.5736 N   0  0  0  0  0  0  0  0  0  0  0  0
    9.6949    9.7514    1.5930 C   0  0  0  0  0  0  0  0  0  0  0  0
   10.7572   10.1350    2.4201 C   0  0  0  0  0  0  0  0  0  0  0  0
   11.3639   11.3916    2.3275 C   0  0  0  0  0  0  0  0  0  0  0  0
   12.3808   11.7245    3.1375 F   0  0  0  0  0  0  0  0  0  0  0  0
   10.8747   12.2853    1.3641 C   0  0  0  0  0  0  0  0  0  0  0  0
   11.2781   13.5638    1.0614 N   0  0  0  0  0  0  0  0  0  0  0  0
   10.4938   13.9600    0.0793 C   0  0  0  0  0  0  0  0  0  0  0  0
   10.5284   15.2646   -0.5994 C   0  0  0  0  0  0  0  0  0  0  0  0
    9.5957   12.9782   -0.2612 N   0  0  0  0  0  0  0  0  0  0  0  0
    8.5902   13.0706   -1.2948 C   0  0  0  0  0  0  0  0  0  0  0  0
    8.7644   12.0062   -2.3787 C   0  0  0  0  0  0  0  0  0  0  0  0
    7.1655   13.1184   -0.7379 C   0  0  0  0  0  0  0  0  0  0  0  0
    9.8199   11.8938    0.5484 C   0  0  0  0  0  0  0  0  0  0  0  0
    9.2026   10.6406    0.6283 C   0  0  0  0  0  0  0  0  0  0  0  0
    6.9702    4.0003    0.4668 N   0  0  0  0  0  0  0  0  0  0  0  0
    6.4009    2.7845    0.3107 C   0  0  0  0  0  0  0  0  0  0  0  0
    3.5048    1.3393    0.3053 C   0  0  0  0  0  0  0  0  0  0  0  0
    1.9722    1.3374    0.3074 C   0  0  0  0  0  0  0  0  0  0  0  0
   -1.6586   -0.0202    1.3838 H   0  0  0  0  0  0  0  0  0  0  0  0
   -0.2551    0.8896    1.9689 H   0  0  0  0  0  0  0  0  0  0  0  0
   -0.2206   -0.8774    1.9699 H   0  0  0  0  0  0  0  0  0  0  0  0
   -0.3639   -0.8973   -0.5131 H   0  0  0  0  0  0  0  0  0  0  0  0
   -0.3822    0.8403   -0.5775 H   0  0  0  0  0  0  0  0  0  0  0  0
    1.6005    0.1552   -2.1132 H   0  0  0  0  0  0  0  0  0  0  0  0
    1.6295   -1.4942   -1.4769 H   0  0  0  0  0  0  0  0  0  0  0  0
    3.8482   -0.7776   -2.2868 H   0  0  0  0  0  0  0  0  0  0  0  0
    3.8771   -1.2072   -0.5719 H   0  0  0  0  0  0  0  0  0  0  0  0
    5.8585    0.3018   -1.8407 H   0  0  0  0  0  0  0  0  0  0  0  0
    5.8049    0.3119   -0.1006 H   0  0  0  0  0  0  0  0  0  0  0  0
    6.2001    2.5343   -3.0506 H   0  0  0  0  0  0  0  0  0  0  0  0
    7.2390    4.7950   -2.8055 H   0  0  0  0  0  0  0  0  0  0  0  0
    8.0434    6.5111   -1.2890 H   0  0  0  0  0  0  0  0  0  0  0  0
    8.1131    6.1135    3.9408 H   0  0  0  0  0  0  0  0  0  0  0  0
   11.1245    9.4290    3.1627 H   0  0  0  0  0  0  0  0  0  0  0  0
   11.3153   15.8954   -0.1755 H   0  0  0  0  0  0  0  0  0  0  0  0
    9.5698   15.7832   -0.5025 H   0  0  0  0  0  0  0  0  0  0  0  0
   10.7310   15.1459   -1.6689 H   0  0  0  0  0  0  0  0  0  0  0  0
    8.7330   14.0330   -1.7958 H   0  0  0  0  0  0  0  0  0  0  0  0
    8.0855   12.1999   -3.2163 H   0  0  0  0  0  0  0  0  0  0  0  0
    8.5538   10.9976   -2.0141 H   0  0  0  0  0  0  0  0  0  0  0  0
    9.7883   12.0119   -2.7687 H   0  0  0  0  0  0  0  0  0  0  0  0
    6.4549   13.3664   -1.5341 H   0  0  0  0  0  0  0  0  0  0  0  0
    7.0769   13.8843    0.0406 H   0  0  0  0  0  0  0  0  0  0  0  0
    6.8484   12.1661   -0.3065 H   0  0  0  0  0  0  0  0  0  0  0  0
    8.3841   10.3975   -0.0383 H   0  0  0  0  0  0  0  0  0  0  0  0
    6.1754    2.2599    1.2334 H   0  0  0  0  0  0  0  0  0  0  0  0
    3.8758    0.7133    1.1284 H   0  0  0  0  0  0  0  0  0  0  0  0
    3.8483    2.3637    0.4942 H   0  0  0  0  0  0  0  0  0  0  0  0
    1.6013    2.0780   -0.4142 H   0  0  0  0  0  0  0  0  0  0  0  0
    1.6286    1.6497    1.3011 H   0  0  0  0  0  0  0  0  0  0  0  0
  1  2  1  0
  2  3  1  0
  3  4  1  0
  4  5  1  0
  5  6  1  0
  6  7  1  0
  7  8  1  0
  8  9  2  0
  9 10  1  0
 10 11  2  0
 11 12  1  0
 12 13  1  0
 13 14  2  0
 14 15  1  0
 15 16  2  0
 16 17  1  0
 16 18  1  0
 18 19  2  0
 18 20  1  0
 20 21  2  0
 21 22  1  0
 22 23  1  0
 22 24  2  0
 24 25  1  0
 25 26  2  0
 26 27  1  0
 26 28  1  0
 28 29  1  0
 29 30  1  0
 29 31  1  0
 28 32  1  0
 32 33  2  0
 11 34  1  0
 34 35  2  0
  6 36  1  0
 36 37  1  0
 37  3  1  0
 35  8  1  0
 19 13  1  0
 33 20  1  0
 32 24  1  0
  1 38  1  0
  1 39  1  0
  1 40  1  0
  2 41  1  0
  2 42  1  0
  4 43  1  0
  4 44  1  0
  5 45  1  0
  5 46  1  0
  7 47  1  0
  7 48  1  0
  9 49  1  0
 10 50  1  0
 12 51  1  0
 15 52  1  0
 21 53  1  0
 27 54  1  0
 27 55  1  0
 27 56  1  0
 29 57  1  0
 30 58  1  0
 30 59  1  0
 30 60  1  0
 31 61  1  0
 31 62  1  0
 31 63  1  0
 33 64  1  0
 35 65  1  0
 36 66  1  0
 36 67  1  0
 37 68  1  0
 37 69  1  0
M  END
>  <_MoleculeID>  (259) 
smi28

>  <_InputIndex>  (259) 
28

>  <_InputSMILES>  (259) 
CCN1CCN(Cc2ccc(Nc3ncc(F)c(n3)-c3cc(F)c4nc(C)n(C(C)C)c4c3)nc2)CC1

>  <_InputInChIKey>  (259) 
UZWDCWONPYILKI-UHFFFAOYSA-N

>  <_SMILES>  (259) 
CCN1CCN(Cc2ccc(Nc3ncc(F)c(-c4cc(F)c5nc(C)n(C(C)C)c5c4)n3)nc2)CC1

>  <_InChIKey>  (259) 
UZWDCWONPYILKI-UHFFFAOYSA-N

$$$$
smi28_conf5
     RDKit          3D

 69 73  0  0  0  0  0  0  0  0999 V2000
   -0.5649    0.0000    1.4124 C   0  0  0  0  0  0  0  0  0  0  0  0
    0.0000    0.0000    0.0000 C   0  0  0  0  0  0  0  0  0  0  0  0
    1.4510    0.0000    0.0000 N   0  0  0  0  0  0  0  0  0  0  0  0
    1.9724   -1.3514    0.2383 C   0  0  0  0  0  0  0  0  0  0  0  0
    3.5051   -1.3540    0.2347 C   0  0  0  0  0  0  0  0  0  0  0  0
    4.0259   -0.8184   -1.0290 N   0  0  0  0  0  0  0  0  0  0  0  0
    5.4769   -0.8189   -1.0300 C   0  0  0  0  0  0  0  0  0  0  0  0
    6.1079   -0.5170   -2.3411 C   0  0  0  0  0  0  0  0  0  0  0  0
    6.4172   -1.5258   -3.2515 C   0  0  0  0  0  0  0  0  0  0  0  0
    7.0023   -1.1674   -4.4724 C   0  0  0  0  0  0  0  0  0  0  0  0
    7.2809    0.1742   -4.7410 C   0  0  0  0  0  0  0  0  0  0  0  0
    7.8715    0.5836   -5.9402 N   0  0  0  0  0  0  0  0  0  0  0  0
    8.2268    1.8565   -6.3962 C   0  0  0  0  0  0  0  0  0  0  0  0
    7.9712    2.8854   -5.5656 N   0  0  0  0  0  0  0  0  0  0  0  0
    8.3220    4.1176   -6.0060 C   0  0  0  0  0  0  0  0  0  0  0  0
    8.8927    4.3097   -7.2553 C   0  0  0  0  0  0  0  0  0  0  0  0
    9.2117    5.5166   -7.7479 F   0  0  0  0  0  0  0  0  0  0  0  0
    9.1090    3.1720   -8.0187 C   0  0  0  0  0  0  0  0  0  0  0  0
    8.7846    1.9252   -7.6149 N   0  0  0  0  0  0  0  0  0  0  0  0
    9.6949    3.2621   -9.3266 C   0  0  0  0  0  0  0  0  0  0  0  0
    9.2055    2.4689  -10.3711 C   0  0  0  0  0  0  0  0  0  0  0  0
    9.7391    2.5171  -11.6629 C   0  0  0  0  0  0  0  0  0  0  0  0
    9.2437    1.7417  -12.6398 F   0  0  0  0  0  0  0  0  0  0  0  0
   10.8033    3.3990  -11.8992 C   0  0  0  0  0  0  0  0  0  0  0  0
   11.5052    3.6449  -13.0548 N   0  0  0  0  0  0  0  0  0  0  0  0
   12.3992    4.5602  -12.7390 C   0  0  0  0  0  0  0  0  0  0  0  0
   13.3961    5.1605  -13.6388 C   0  0  0  0  0  0  0  0  0  0  0  0
   12.2976    4.9124  -11.4153 N   0  0  0  0  0  0  0  0  0  0  0  0
   13.1182    5.8858  -10.7318 C   0  0  0  0  0  0  0  0  0  0  0  0
   12.2986    7.0390  -10.1513 C   0  0  0  0  0  0  0  0  0  0  0  0
   14.0601    5.2549   -9.7038 C   0  0  0  0  0  0  0  0  0  0  0  0
   11.2810    4.1817  -10.8548 C   0  0  0  0  0  0  0  0  0  0  0  0
   10.7580    4.1453   -9.5575 C   0  0  0  0  0  0  0  0  0  0  0  0
    6.9702    1.1544   -3.8585 N   0  0  0  0  0  0  0  0  0  0  0  0
    6.4009    0.7895   -2.6883 C   0  0  0  0  0  0  0  0  0  0  0  0
    3.5048    0.5333   -1.2660 C   0  0  0  0  0  0  0  0  0  0  0  0
    1.9722    0.5350   -1.2637 C   0  0  0  0  0  0  0  0  0  0  0  0
   -1.6586   -0.0202    1.3838 H   0  0  0  0  0  0  0  0  0  0  0  0
   -0.2551    0.8896    1.9689 H   0  0  0  0  0  0  0  0  0  0  0  0
   -0.2206   -0.8774    1.9699 H   0  0  0  0  0  0  0  0  0  0  0  0
   -0.3639   -0.8973   -0.5131 H   0  0  0  0  0  0  0  0  0  0  0  0
   -0.3822    0.8403   -0.5775 H   0  0  0  0  0  0  0  0  0  0  0  0
    1.6005   -2.0542   -0.5198 H   0  0  0  0  0  0  0  0  0  0  0  0
    1.6295   -1.7139    1.2150 H   0  0  0  0  0  0  0  0  0  0  0  0
    3.8482   -2.3871    0.3687 H   0  0  0  0  0  0  0  0  0  0  0  0
    3.8771   -0.7728    1.0895 H   0  0  0  0  0  0  0  0  0  0  0  0
    5.8585   -1.7603   -0.6168 H   0  0  0  0  0  0  0  0  0  0  0  0
    5.8049   -0.0449   -0.3246 H   0  0  0  0  0  0  0  0  0  0  0  0
    6.2001   -2.5642   -3.0256 H   0  0  0  0  0  0  0  0  0  0  0  0
    7.2390   -1.9302   -5.2093 H   0  0  0  0  0  0  0  0  0  0  0  0
    8.0434   -0.1388   -6.6360 H   0  0  0  0  0  0  0  0  0  0  0  0
    8.1131    4.9425   -5.3363 H   0  0  0  0  0  0  0  0  0  0  0  0
    8.3791    1.7896  -10.1703 H   0  0  0  0  0  0  0  0  0  0  0  0
   13.3051    4.7404  -14.6448 H   0  0  0  0  0  0  0  0  0  0  0  0
   14.4120    4.9839  -13.2731 H   0  0  0  0  0  0  0  0  0  0  0  0
   13.2571    6.2442  -13.7121 H   0  0  0  0  0  0  0  0  0  0  0  0
   13.7754    6.3350  -11.4828 H   0  0  0  0  0  0  0  0  0  0  0  0
   12.9609    7.8277   -9.7780 H   0  0  0  0  0  0  0  0  0  0  0  0
   11.6632    6.7251   -9.3194 H   0  0  0  0  0  0  0  0  0  0  0  0
   11.6506    7.4798  -10.9170 H   0  0  0  0  0  0  0  0  0  0  0  0
   14.7804    5.9974   -9.3431 H   0  0  0  0  0  0  0  0  0  0  0  0
   14.6253    4.4285  -10.1487 H   0  0  0  0  0  0  0  0  0  0  0  0
   13.5321    4.8656   -8.8301 H   0  0  0  0  0  0  0  0  0  0  0  0
   11.1764    4.7825   -8.7878 H   0  0  0  0  0  0  0  0  0  0  0  0
    6.1754    1.6071   -2.0114 H   0  0  0  0  0  0  0  0  0  0  0  0
    3.8758    1.2351   -0.5066 H   0  0  0  0  0  0  0  0  0  0  0  0
    3.8483    0.8972   -2.2419 H   0  0  0  0  0  0  0  0  0  0  0  0
    1.6013   -0.0471   -2.1184 H   0  0  0  0  0  0  0  0  0  0  0  0
    1.6286    1.5678   -1.3987 H   0  0  0  0  0  0  0  0  0  0  0  0
  1  2  1  0
  2  3  1  0
  3  4  1  0
  4  5  1  0
  5  6  1  0
  6  7  1  0
  7  8  1  0
  8  9  2  0
  9 10  1  0
 10 11  2  0
 11 12  1  0
 12 13  1  0
 13 14  2  0
 14 15  1  0
 15 16  2  0
 16 17  1  0
 16 18  1  0
 18 19  2  0
 18 20  1  0
 20 21  2  0
 21 22  1  0
 22 23  1  0
 22 24  2  0
 24 25  1  0
 25 26  2  0
 26 27  1  0
 26 28  1  0
 28 29  1  0
 29 30  1  0
 29 31  1  0
 28 32  1  0
 32 33  2  0
 11 34  1  0
 34 35  2  0
  6 36  1  0
 36 37  1  0
 37  3  1  0
 35  8  1  0
 19 13  1  0
 33 20  1  0
 32 24  1  0
  1 38  1  0
  1 39  1  0
  1 40  1  0
  2 41  1  0
  2 42  1  0
  4 43  1  0
  4 44  1  0
  5 45  1  0
  5 46  1  0
  7 47  1  0
  7 48  1  0
  9 49  1  0
 10 50  1  0
 12 51  1  0
 15 52  1  0
 21 53  1  0
 27 54  1  0
 27 55  1  0
 27 56  1  0
 29 57  1  0
 30 58  1  0
 30 59  1  0
 30 60  1  0
 31 61  1  0
 31 62  1  0
 31 63  1  0
 33 64  1  0
 35 65  1  0
 36 66  1  0
 36 67  1  0
 37 68  1  0
 37 69  1  0
M  END
>  <_MoleculeID>  (260) 
smi28

>  <_InputIndex>  (260) 
28

>  <_InputSMILES>  (260) 
CCN1CCN(Cc2ccc(Nc3ncc(F)c(n3)-c3cc(F)c4nc(C)n(C(C)C)c4c3)nc2)CC1

>  <_InputInChIKey>  (260) 
UZWDCWONPYILKI-UHFFFAOYSA-N

>  <_SMILES>  (260) 
CCN1CCN(Cc2ccc(Nc3ncc(F)c(-c4cc(F)c5nc(C)n(C(C)C)c5c4)n3)nc2)CC1

>  <_InChIKey>  (260) 
UZWDCWONPYILKI-UHFFFAOYSA-N

$$$$
smi28_conf6
     RDKit          3D

 69 73  0  0  0  0  0  0  0  0999 V2000
   -0.5649    0.0000    1.4124 C   0  0  0  0  0  0  0  0  0  0  0  0
    0.0000    0.0000    0.0000 C   0  0  0  0  0  0  0  0  0  0  0  0
    1.4510   -0.0000    0.0000 N   0  0  0  0  0  0  0  0  0  0  0  0
    1.9724   -0.4693   -1.2895 C   0  0  0  0  0  0  0  0  0  0  0  0
    3.5051   -0.4662   -1.2927 C   0  0  0  0  0  0  0  0  0  0  0  0
    4.0259    0.8712   -0.9847 N   0  0  0  0  0  0  0  0  0  0  0  0
    5.4769    0.8722   -0.9853 C   0  0  0  0  0  0  0  0  0  0  0  0
    6.1087    0.2616   -2.1838 C   0  0  0  0  0  0  0  0  0  0  0  0
    6.4179    1.0196   -3.3116 C   0  0  0  0  0  0  0  0  0  0  0  0
    7.0214    0.3798   -4.4015 C   0  0  0  0  0  0  0  0  0  0  0  0
    7.2781   -0.9916   -4.3460 C   0  0  0  0  0  0  0  0  0  0  0  0
    7.8706   -1.6790   -5.4094 N   0  0  0  0  0  0  0  0  0  0  0  0
    8.2066   -3.0286   -5.5513 C   0  0  0  0  0  0  0  0  0  0  0  0
    8.7758   -3.3867   -6.7181 N   0  0  0  0  0  0  0  0  0  0  0  0
    9.1071   -4.6935   -6.8518 C   0  0  0  0  0  0  0  0  0  0  0  0
    8.8518   -5.6161   -5.8484 C   0  0  0  0  0  0  0  0  0  0  0  0
    9.1211   -6.9262   -5.9586 F   0  0  0  0  0  0  0  0  0  0  0  0
    8.2638   -5.1260   -4.6917 C   0  0  0  0  0  0  0  0  0  0  0  0
    7.9271   -3.8309   -4.5124 N   0  0  0  0  0  0  0  0  0  0  0  0
    7.9585   -5.9987   -3.5929 C   0  0  0  0  0  0  0  0  0  0  0  0
    6.7577   -5.8477   -2.8893 C   0  0  0  0  0  0  0  0  0  0  0  0
    6.4111   -6.6697   -1.8123 C   0  0  0  0  0  0  0  0  0  0  0  0
    5.2505   -6.4956   -1.1613 F   0  0  0  0  0  0  0  0  0  0  0  0
    7.3137   -7.6759   -1.4396 C   0  0  0  0  0  0  0  0  0  0  0  0
    7.2280   -8.6101   -0.4353 N   0  0  0  0  0  0  0  0  0  0  0  0
    8.3371   -9.3176   -0.5133 C   0  0  0  0  0  0  0  0  0  0  0  0
    8.7210  -10.4454    0.3496 C   0  0  0  0  0  0  0  0  0  0  0  0
    9.1371   -8.8690   -1.5357 N   0  0  0  0  0  0  0  0  0  0  0  0
   10.4235   -9.4129   -1.9064 C   0  0  0  0  0  0  0  0  0  0  0  0
   10.4480   -9.9313   -3.3448 C   0  0  0  0  0  0  0  0  0  0  0  0
   11.5831   -8.4617   -1.6018 C   0  0  0  0  0  0  0  0  0  0  0  0
    8.5027   -7.8167   -2.1453 C   0  0  0  0  0  0  0  0  0  0  0  0
    8.8638   -7.0029   -3.2248 C   0  0  0  0  0  0  0  0  0  0  0  0
    6.9856   -1.7246   -3.2446 N   0  0  0  0  0  0  0  0  0  0  0  0
    6.4089   -1.0885   -2.2008 C   0  0  0  0  0  0  0  0  0  0  0  0
    3.5048    1.3393    0.3053 C   0  0  0  0  0  0  0  0  0  0  0  0
    1.9722    1.3374    0.3074 C   0  0  0  0  0  0  0  0  0  0  0  0
   -1.6586   -0.0202    1.3838 H   0  0  0  0  0  0  0  0  0  0  0  0
   -0.2551    0.8896    1.9689 H   0  0  0  0  0  0  0  0  0  0  0  0
   -0.2206   -0.8774    1.9699 H   0  0  0  0  0  0  0  0  0  0  0  0
   -0.3639   -0.8973   -0.5131 H   0  0  0  0  0  0  0  0  0  0  0  0
   -0.3822    0.8403   -0.5775 H   0  0  0  0  0  0  0  0  0  0  0  0
    1.6005    0.1552   -2.1132 H   0  0  0  0  0  0  0  0  0  0  0  0
    1.6295   -1.4942   -1.4769 H   0  0  0  0  0  0  0  0  0  0  0  0
    3.8482   -0.7776   -2.2868 H   0  0  0  0  0  0  0  0  0  0  0  0
    3.8771   -1.2072   -0.5719 H   0  0  0  0  0  0  0  0  0  0  0  0
    5.8592    0.4172   -0.0637 H   0  0  0  0  0  0  0  0  0  0  0  0
    5.8035    1.9190   -0.9425 H   0  0  0  0  0  0  0  0  0  0  0  0
    6.2068    2.0830   -3.3416 H   0  0  0  0  0  0  0  0  0  0  0  0
    7.2898    0.9480   -5.2881 H   0  0  0  0  0  0  0  0  0  0  0  0
    8.1566   -1.1225   -6.2119 H   0  0  0  0  0  0  0  0  0  0  0  0
    9.5626   -4.9779   -7.7921 H   0  0  0  0  0  0  0  0  0  0  0  0
    6.0685   -5.0615   -3.1917 H   0  0  0  0  0  0  0  0  0  0  0  0
    7.9448  -10.6370    1.0963 H   0  0  0  0  0  0  0  0  0  0  0  0
    9.6644  -10.2420    0.8652 H   0  0  0  0  0  0  0  0  0  0  0  0
    8.8578  -11.3599   -0.2369 H   0  0  0  0  0  0  0  0  0  0  0  0
   10.5972  -10.2869   -1.2711 H   0  0  0  0  0  0  0  0  0  0  0  0
   11.3814  -10.4704   -3.5402 H   0  0  0  0  0  0  0  0  0  0  0  0
   10.3746   -9.1276   -4.0818 H   0  0  0  0  0  0  0  0  0  0  0  0
    9.6175  -10.6232   -3.5233 H   0  0  0  0  0  0  0  0  0  0  0  0
   12.5409   -8.9778   -1.7299 H   0  0  0  0  0  0  0  0  0  0  0  0
   11.5315   -8.1029   -0.5679 H   0  0  0  0  0  0  0  0  0  0  0  0
   11.5962   -7.5880   -2.2577 H   0  0  0  0  0  0  0  0  0  0  0  0
    9.8065   -7.1658   -3.7331 H   0  0  0  0  0  0  0  0  0  0  0  0
    6.1879   -1.7167   -1.3441 H   0  0  0  0  0  0  0  0  0  0  0  0
    3.8758    0.7133    1.1284 H   0  0  0  0  0  0  0  0  0  0  0  0
    3.8483    2.3637    0.4942 H   0  0  0  0  0  0  0  0  0  0  0  0
    1.6013    2.0780   -0.4142 H   0  0  0  0  0  0  0  0  0  0  0  0
    1.6286    1.6497    1.3011 H   0  0  0  0  0  0  0  0  0  0  0  0
  1  2  1  0
  2  3  1  0
  3  4  1  0
  4  5  1  0
  5  6  1  0
  6  7  1  0
  7  8  1  0
  8  9  2  0
  9 10  1  0
 10 11  2  0
 11 12  1  0
 12 13  1  0
 13 14  2  0
 14 15  1  0
 15 16  2  0
 16 17  1  0
 16 18  1  0
 18 19  2  0
 18 20  1  0
 20 21  2  0
 21 22  1  0
 22 23  1  0
 22 24  2  0
 24 25  1  0
 25 26  2  0
 26 27  1  0
 26 28  1  0
 28 29  1  0
 29 30  1  0
 29 31  1  0
 28 32  1  0
 32 33  2  0
 11 34  1  0
 34 35  2  0
  6 36  1  0
 36 37  1  0
 37  3  1  0
 35  8  1  0
 19 13  1  0
 33 20  1  0
 32 24  1  0
  1 38  1  0
  1 39  1  0
  1 40  1  0
  2 41  1  0
  2 42  1  0
  4 43  1  0
  4 44  1  0
  5 45  1  0
  5 46  1  0
  7 47  1  0
  7 48  1  0
  9 49  1  0
 10 50  1  0
 12 51  1  0
 15 52  1  0
 21 53  1  0
 27 54  1  0
 27 55  1  0
 27 56  1  0
 29 57  1  0
 30 58  1  0
 30 59  1  0
 30 60  1  0
 31 61  1  0
 31 62  1  0
 31 63  1  0
 33 64  1  0
 35 65  1  0
 36 66  1  0
 36 67  1  0
 37 68  1  0
 37 69  1  0
M  END
>  <_MoleculeID>  (261) 
smi28

>  <_InputIndex>  (261) 
28

>  <_InputSMILES>  (261) 
CCN1CCN(Cc2ccc(Nc3ncc(F)c(n3)-c3cc(F)c4nc(C)n(C(C)C)c4c3)nc2)CC1

>  <_InputInChIKey>  (261) 
UZWDCWONPYILKI-UHFFFAOYSA-N

>  <_SMILES>  (261) 
CCN1CCN(Cc2ccc(Nc3ncc(F)c(-c4cc(F)c5nc(C)n(C(C)C)c5c4)n3)nc2)CC1

>  <_InChIKey>  (261) 
UZWDCWONPYILKI-UHFFFAOYSA-N

$$$$
smi28_conf7
     RDKit          3D

 69 73  0  0  0  0  0  0  0  0999 V2000
   -0.5649    0.0000    1.4124 C   0  0  0  0  0  0  0  0  0  0  0  0
    0.0000    0.0000    0.0000 C   0  0  0  0  0  0  0  0  0  0  0  0
    1.4510    0.0000    0.0000 N   0  0  0  0  0  0  0  0  0  0  0  0
    1.9724   -1.3514    0.2383 C   0  0  0  0  0  0  0  0  0  0  0  0
    3.5051   -1.3540    0.2347 C   0  0  0  0  0  0  0  0  0  0  0  0
    4.0259   -0.8184   -1.0290 N   0  0  0  0  0  0  0  0  0  0  0  0
    5.4769   -0.8189   -1.0300 C   0  0  0  0  0  0  0  0  0  0  0  0
    6.1083   -2.1622   -1.1004 C   0  0  0  0  0  0  0  0  0  0  0  0
    6.4192   -2.8836    0.0508 C   0  0  0  0  0  0  0  0  0  0  0  0
    7.0045   -4.1479   -0.0909 C   0  0  0  0  0  0  0  0  0  0  0  0
    7.2817   -4.6454   -1.3658 C   0  0  0  0  0  0  0  0  0  0  0  0
    7.8726   -5.8972   -1.5614 N   0  0  0  0  0  0  0  0  0  0  0  0
    8.2910   -6.8641   -0.6425 C   0  0  0  0  0  0  0  0  0  0  0  0
    8.8323   -7.9858   -1.1548 N   0  0  0  0  0  0  0  0  0  0  0  0
    9.2434   -8.9191   -0.2631 C   0  0  0  0  0  0  0  0  0  0  0  0
    9.0928   -8.7372    1.1035 C   0  0  0  0  0  0  0  0  0  0  0  0
    9.4435   -9.6551    2.0175 F   0  0  0  0  0  0  0  0  0  0  0  0
    8.5236   -7.5393    1.5096 C   0  0  0  0  0  0  0  0  0  0  0  0
    8.1098   -6.5783    0.6563 N   0  0  0  0  0  0  0  0  0  0  0  0
    8.3240   -7.2526    2.9025 C   0  0  0  0  0  0  0  0  0  0  0  0
    7.8987   -8.2629    3.7732 C   0  0  0  0  0  0  0  0  0  0  0  0
    7.6890   -8.0381    5.1374 C   0  0  0  0  0  0  0  0  0  0  0  0
    7.2813   -9.0315    5.9423 F   0  0  0  0  0  0  0  0  0  0  0  0
    7.9187   -6.7459    5.6309 C   0  0  0  0  0  0  0  0  0  0  0  0
    7.7933   -6.2541    6.9081 N   0  0  0  0  0  0  0  0  0  0  0  0
    8.1301   -4.9822    6.8331 C   0  0  0  0  0  0  0  0  0  0  0  0
    8.1592   -4.0154    7.9414 C   0  0  0  0  0  0  0  0  0  0  0  0
    8.4680   -4.6366    5.5475 N   0  0  0  0  0  0  0  0  0  0  0  0
    8.8872   -3.3267    5.1043 C   0  0  0  0  0  0  0  0  0  0  0  0
   10.2883   -3.3359    4.4917 C   0  0  0  0  0  0  0  0  0  0  0  0
    7.8545   -2.6428    4.2055 C   0  0  0  0  0  0  0  0  0  0  0  0
    8.3408   -5.7507    4.7574 C   0  0  0  0  0  0  0  0  0  0  0  0
    8.5553   -5.9596    3.3906 C   0  0  0  0  0  0  0  0  0  0  0  0
    6.9695   -3.9465   -2.4840 N   0  0  0  0  0  0  0  0  0  0  0  0
    6.4000   -2.7309   -2.3271 C   0  0  0  0  0  0  0  0  0  0  0  0
    3.5048    0.5333   -1.2660 C   0  0  0  0  0  0  0  0  0  0  0  0
    1.9722    0.5350   -1.2637 C   0  0  0  0  0  0  0  0  0  0  0  0
   -1.6586   -0.0202    1.3838 H   0  0  0  0  0  0  0  0  0  0  0  0
   -0.2551    0.8896    1.9689 H   0  0  0  0  0  0  0  0  0  0  0  0
   -0.2206   -0.8774    1.9699 H   0  0  0  0  0  0  0  0  0  0  0  0
   -0.3639   -0.8973   -0.5131 H   0  0  0  0  0  0  0  0  0  0  0  0
   -0.3822    0.8403   -0.5775 H   0  0  0  0  0  0  0  0  0  0  0  0
    1.6005   -2.0542   -0.5198 H   0  0  0  0  0  0  0  0  0  0  0  0
    1.6295   -1.7139    1.2150 H   0  0  0  0  0  0  0  0  0  0  0  0
    3.8482   -2.3871    0.3687 H   0  0  0  0  0  0  0  0  0  0  0  0
    3.8771   -0.7728    1.0895 H   0  0  0  0  0  0  0  0  0  0  0  0
    5.8593   -0.2484   -0.1751 H   0  0  0  0  0  0  0  0  0  0  0  0
    5.8037   -0.2585   -1.9152 H   0  0  0  0  0  0  0  0  0  0  0  0
    6.2031   -2.4808    1.0344 H   0  0  0  0  0  0  0  0  0  0  0  0
    7.2424   -4.7411    0.7880 H   0  0  0  0  0  0  0  0  0  0  0  0
    8.0865   -6.1576   -2.5216 H   0  0  0  0  0  0  0  0  0  0  0  0
    9.6762   -9.8204   -0.6789 H   0  0  0  0  0  0  0  0  0  0  0  0
    7.7250   -9.2602    3.3735 H   0  0  0  0  0  0  0  0  0  0  0  0
    7.8553   -4.4960    8.8761 H   0  0  0  0  0  0  0  0  0  0  0  0
    7.4905   -3.1721    7.7445 H   0  0  0  0  0  0  0  0  0  0  0  0
    9.1665   -3.6099    8.0827 H   0  0  0  0  0  0  0  0  0  0  0  0
    8.9546   -2.6935    5.9942 H   0  0  0  0  0  0  0  0  0  0  0  0
   10.6316   -2.3118    4.3091 H   0  0  0  0  0  0  0  0  0  0  0  0
   10.3258   -3.8680    3.5378 H   0  0  0  0  0  0  0  0  0  0  0  0
   11.0054   -3.8145    5.1679 H   0  0  0  0  0  0  0  0  0  0  0  0
    8.1288   -1.5949    4.0414 H   0  0  0  0  0  0  0  0  0  0  0  0
    6.8619   -2.6605    4.6690 H   0  0  0  0  0  0  0  0  0  0  0  0
    7.7722   -3.1131    3.2228 H   0  0  0  0  0  0  0  0  0  0  0  0
    8.8852   -5.1401    2.7636 H   0  0  0  0  0  0  0  0  0  0  0  0
    6.1732   -2.2064   -3.2496 H   0  0  0  0  0  0  0  0  0  0  0  0
    3.8758    1.2351   -0.5066 H   0  0  0  0  0  0  0  0  0  0  0  0
    3.8483    0.8972   -2.2419 H   0  0  0  0  0  0  0  0  0  0  0  0
    1.6013   -0.0471   -2.1184 H   0  0  0  0  0  0  0  0  0  0  0  0
    1.6286    1.5678   -1.3987 H   0  0  0  0  0  0  0  0  0  0  0  0
  1  2  1  0
  2  3  1  0
  3  4  1  0
  4  5  1  0
  5  6  1  0
  6  7  1  0
  7  8  1  0
  8  9  2  0
  9 10  1  0
 10 11  2  0
 11 12  1  0
 12 13  1  0
 13 14  2  0
 14 15  1  0
 15 16  2  0
 16 17  1  0
 16 18  1  0
 18 19  2  0
 18 20  1  0
 20 21  2  0
 21 22  1  0
 22 23  1  0
 22 24  2  0
 24 25  1  0
 25 26  2  0
 26 27  1  0
 26 28  1  0
 28 29  1  0
 29 30  1  0
 29 31  1  0
 28 32  1  0
 32 33  2  0
 11 34  1  0
 34 35  2  0
  6 36  1  0
 36 37  1  0
 37  3  1  0
 35  8  1  0
 19 13  1  0
 33 20  1  0
 32 24  1  0
  1 38  1  0
  1 39  1  0
  1 40  1  0
  2 41  1  0
  2 42  1  0
  4 43  1  0
  4 44  1  0
  5 45  1  0
  5 46  1  0
  7 47  1  0
  7 48  1  0
  9 49  1  0
 10 50  1  0
 12 51  1  0
 15 52  1  0
 21 53  1  0
 27 54  1  0
 27 55  1  0
 27 56  1  0
 29 57  1  0
 30 58  1  0
 30 59  1  0
 30 60  1  0
 31 61  1  0
 31 62  1  0
 31 63  1  0
 33 64  1  0
 35 65  1  0
 36 66  1  0
 36 67  1  0
 37 68  1  0
 37 69  1  0
M  END
>  <_MoleculeID>  (262) 
smi28

>  <_InputIndex>  (262) 
28

>  <_InputSMILES>  (262) 
CCN1CCN(Cc2ccc(Nc3ncc(F)c(n3)-c3cc(F)c4nc(C)n(C(C)C)c4c3)nc2)CC1

>  <_InputInChIKey>  (262) 
UZWDCWONPYILKI-UHFFFAOYSA-N

>  <_SMILES>  (262) 
CCN1CCN(Cc2ccc(Nc3ncc(F)c(-c4cc(F)c5nc(C)n(C(C)C)c5c4)n3)nc2)CC1

>  <_InChIKey>  (262) 
UZWDCWONPYILKI-UHFFFAOYSA-N

$$$$
smi28_conf8
     RDKit          3D

 69 73  0  0  0  0  0  0  0  0999 V2000
   -0.5649    0.0000    1.4124 C   0  0  0  0  0  0  0  0  0  0  0  0
    0.0000    0.0000    0.0000 C   0  0  0  0  0  0  0  0  0  0  0  0
    1.4510    0.0000   -0.0000 N   0  0  0  0  0  0  0  0  0  0  0  0
    1.9726    0.4693   -1.2894 C   0  0  0  0  0  0  0  0  0  0  0  0
    3.5052    0.4671   -1.2918 C   0  0  0  0  0  0  0  0  0  0  0  0
    4.0269   -0.8699   -0.9832 N   0  0  0  0  0  0  0  0  0  0  0  0
    5.4779   -0.8694   -0.9822 C   0  0  0  0  0  0  0  0  0  0  0  0
    6.1107   -0.7048   -2.3166 C   0  0  0  0  0  0  0  0  0  0  0  0
    6.4209    0.5545   -2.8267 C   0  0  0  0  0  0  0  0  0  0  0  0
    7.0253    0.6341   -4.0875 C   0  0  0  0  0  0  0  0  0  0  0  0
    7.2820   -0.5335   -4.8090 C   0  0  0  0  0  0  0  0  0  0  0  0
    7.8754   -0.5082   -6.0745 N   0  0  0  0  0  0  0  0  0  0  0  0
    8.3151    0.5639   -6.8566 C   0  0  0  0  0  0  0  0  0  0  0  0
    8.8527    0.2550   -8.0522 N   0  0  0  0  0  0  0  0  0  0  0  0
    9.2723    1.2952   -8.8119 C   0  0  0  0  0  0  0  0  0  0  0  0
    9.1737    2.6062   -8.3705 C   0  0  0  0  0  0  0  0  0  0  0  0
    9.6193    3.6606   -9.0709 F   0  0  0  0  0  0  0  0  0  0  0  0
    8.5996    2.7977   -7.1225 C   0  0  0  0  0  0  0  0  0  0  0  0
    8.1589    1.7916   -6.3373 N   0  0  0  0  0  0  0  0  0  0  0  0
    8.4508    4.1164   -6.5738 C   0  0  0  0  0  0  0  0  0  0  0  0
    8.0534    5.1778   -7.3955 C   0  0  0  0  0  0  0  0  0  0  0  0
    7.8933    6.4806   -6.9129 C   0  0  0  0  0  0  0  0  0  0  0  0
    7.5103    7.4735   -7.7305 F   0  0  0  0  0  0  0  0  0  0  0  0
    8.1454    6.7106   -5.5529 C   0  0  0  0  0  0  0  0  0  0  0  0
    8.0676    7.8742   -4.8257 N   0  0  0  0  0  0  0  0  0  0  0  0
    8.4041    7.5462   -3.5945 C   0  0  0  0  0  0  0  0  0  0  0  0
    8.4736    8.4477   -2.4341 C   0  0  0  0  0  0  0  0  0  0  0  0
    8.6981    6.2076   -3.5037 N   0  0  0  0  0  0  0  0  0  0  0  0
    9.1025    5.5080   -2.3058 C   0  0  0  0  0  0  0  0  0  0  0  0
    8.1381    4.3820   -1.9309 C   0  0  0  0  0  0  0  0  0  0  0  0
   10.5610    5.0463   -2.3488 C   0  0  0  0  0  0  0  0  0  0  0  0
    8.5393    5.6494   -4.7465 C   0  0  0  0  0  0  0  0  0  0  0  0
    8.7037    4.3408   -5.2139 C   0  0  0  0  0  0  0  0  0  0  0  0
    6.9886   -1.7573   -4.3068 N   0  0  0  0  0  0  0  0  0  0  0  0
    6.4110   -1.8142   -3.0862 C   0  0  0  0  0  0  0  0  0  0  0  0
    3.5049   -1.3386    0.3063 C   0  0  0  0  0  0  0  0  0  0  0  0
    1.9724   -1.3374    0.3073 C   0  0  0  0  0  0  0  0  0  0  0  0
   -1.6586   -0.0202    1.3838 H   0  0  0  0  0  0  0  0  0  0  0  0
   -0.2551    0.8896    1.9689 H   0  0  0  0  0  0  0  0  0  0  0  0
   -0.2206   -0.8774    1.9699 H   0  0  0  0  0  0  0  0  0  0  0  0
   -0.3639   -0.8973   -0.5131 H   0  0  0  0  0  0  0  0  0  0  0  0
   -0.3822    0.8403   -0.5775 H   0  0  0  0  0  0  0  0  0  0  0  0
    1.6014   -0.1557   -2.1131 H   0  0  0  0  0  0  0  0  0  0  0  0
    1.6292    1.4939   -1.4772 H   0  0  0  0  0  0  0  0  0  0  0  0
    3.8487    0.7784   -2.2858 H   0  0  0  0  0  0  0  0  0  0  0  0
    3.8763    1.2085   -0.5710 H   0  0  0  0  0  0  0  0  0  0  0  0
    5.8595   -1.7625   -0.4729 H   0  0  0  0  0  0  0  0  0  0  0  0
    5.8044   -0.0260   -0.3605 H   0  0  0  0  0  0  0  0  0  0  0  0
    6.2097    1.4526   -2.2565 H   0  0  0  0  0  0  0  0  0  0  0  0
    7.2944    1.6011   -4.5040 H   0  0  0  0  0  0  0  0  0  0  0  0
    7.9775   -1.4019   -6.5504 H   0  0  0  0  0  0  0  0  0  0  0  0
    9.7058    1.0427   -9.7715 H   0  0  0  0  0  0  0  0  0  0  0  0
    7.8619    4.9818   -8.4488 H   0  0  0  0  0  0  0  0  0  0  0  0
    8.2015    9.4667   -2.7248 H   0  0  0  0  0  0  0  0  0  0  0  0
    9.4804    8.4598   -2.0059 H   0  0  0  0  0  0  0  0  0  0  0  0
    7.7850    8.1268   -1.6455 H   0  0  0  0  0  0  0  0  0  0  0  0
    9.0554    6.2278   -1.4828 H   0  0  0  0  0  0  0  0  0  0  0  0
    8.3889    3.9776   -0.9442 H   0  0  0  0  0  0  0  0  0  0  0  0
    8.1662    3.5517   -2.6410 H   0  0  0  0  0  0  0  0  0  0  0  0
    7.1070    4.7503   -1.8903 H   0  0  0  0  0  0  0  0  0  0  0  0
   10.8737    4.6844   -1.3631 H   0  0  0  0  0  0  0  0  0  0  0  0
   11.2234    5.8731   -2.6277 H   0  0  0  0  0  0  0  0  0  0  0  0
   10.7257    4.2327   -3.0591 H   0  0  0  0  0  0  0  0  0  0  0  0
    9.0130    3.5579   -4.5320 H   0  0  0  0  0  0  0  0  0  0  0  0
    6.1893   -2.8142   -2.7281 H   0  0  0  0  0  0  0  0  0  0  0  0
    3.8751   -0.7128    1.1298 H   0  0  0  0  0  0  0  0  0  0  0  0
    3.8488   -2.3629    0.4950 H   0  0  0  0  0  0  0  0  0  0  0  0
    1.6021   -2.0779   -0.4148 H   0  0  0  0  0  0  0  0  0  0  0  0
    1.6282   -1.6501    1.3007 H   0  0  0  0  0  0  0  0  0  0  0  0
  1  2  1  0
  2  3  1  0
  3  4  1  0
  4  5  1  0
  5  6  1  0
  6  7  1  0
  7  8  1  0
  8  9  2  0
  9 10  1  0
 10 11  2  0
 11 12  1  0
 12 13  1  0
 13 14  2  0
 14 15  1  0
 15 16  2  0
 16 17  1  0
 16 18  1  0
 18 19  2  0
 18 20  1  0
 20 21  2  0
 21 22  1  0
 22 23  1  0
 22 24  2  0
 24 25  1  0
 25 26  2  0
 26 27  1  0
 26 28  1  0
 28 29  1  0
 29 30  1  0
 29 31  1  0
 28 32  1  0
 32 33  2  0
 11 34  1  0
 34 35  2  0
  6 36  1  0
 36 37  1  0
 37  3  1  0
 35  8  1  0
 19 13  1  0
 33 20  1  0
 32 24  1  0
  1 38  1  0
  1 39  1  0
  1 40  1  0
  2 41  1  0
  2 42  1  0
  4 43  1  0
  4 44  1  0
  5 45  1  0
  5 46  1  0
  7 47  1  0
  7 48  1  0
  9 49  1  0
 10 50  1  0
 12 51  1  0
 15 52  1  0
 21 53  1  0
 27 54  1  0
 27 55  1  0
 27 56  1  0
 29 57  1  0
 30 58  1  0
 30 59  1  0
 30 60  1  0
 31 61  1  0
 31 62  1  0
 31 63  1  0
 33 64  1  0
 35 65  1  0
 36 66  1  0
 36 67  1  0
 37 68  1  0
 37 69  1  0
M  END
>  <_MoleculeID>  (263) 
smi28

>  <_InputIndex>  (263) 
28

>  <_InputSMILES>  (263) 
CCN1CCN(Cc2ccc(Nc3ncc(F)c(n3)-c3cc(F)c4nc(C)n(C(C)C)c4c3)nc2)CC1

>  <_InputInChIKey>  (263) 
UZWDCWONPYILKI-UHFFFAOYSA-N

>  <_SMILES>  (263) 
CCN1CCN(Cc2ccc(Nc3ncc(F)c(-c4cc(F)c5nc(C)n(C(C)C)c5c4)n3)nc2)CC1

>  <_InChIKey>  (263) 
UZWDCWONPYILKI-UHFFFAOYSA-N

$$$$
smi28_conf9
     RDKit          3D

 69 73  0  0  0  0  0  0  0  0999 V2000
   -0.5649    0.0000    1.4124 C   0  0  0  0  0  0  0  0  0  0  0  0
    0.0000    0.0000    0.0000 C   0  0  0  0  0  0  0  0  0  0  0  0
    1.4510    0.0000    0.0000 N   0  0  0  0  0  0  0  0  0  0  0  0
    1.9726    1.3513    0.2383 C   0  0  0  0  0  0  0  0  0  0  0  0
    3.5052    1.3533    0.2357 C   0  0  0  0  0  0  0  0  0  0  0  0
    4.0269    0.8172   -1.0274 N   0  0  0  0  0  0  0  0  0  0  0  0
    5.4779    0.8163   -1.0267 C   0  0  0  0  0  0  0  0  0  0  0  0
    6.1103    0.5138   -2.3370 C   0  0  0  0  0  0  0  0  0  0  0  0
    6.4216    1.5223   -3.2470 C   0  0  0  0  0  0  0  0  0  0  0  0
    7.0255    1.1651   -4.4591 C   0  0  0  0  0  0  0  0  0  0  0  0
    7.2805   -0.1791   -4.7378 C   0  0  0  0  0  0  0  0  0  0  0  0
    7.8734   -0.5889   -5.9357 N   0  0  0  0  0  0  0  0  0  0  0  0
    8.3139    0.1505   -7.0373 C   0  0  0  0  0  0  0  0  0  0  0  0
    7.9960   -0.3347   -8.2527 N   0  0  0  0  0  0  0  0  0  0  0  0
    8.4178    0.3862   -9.3193 C   0  0  0  0  0  0  0  0  0  0  0  0
    9.1572    1.5494   -9.1661 C   0  0  0  0  0  0  0  0  0  0  0  0
    9.6334    2.2672  -10.1951 F   0  0  0  0  0  0  0  0  0  0  0  0
    9.4194    1.9493   -7.8641 C   0  0  0  0  0  0  0  0  0  0  0  0
    9.0098    1.2672   -6.7732 N   0  0  0  0  0  0  0  0  0  0  0  0
   10.1766    3.1397   -7.5966 C   0  0  0  0  0  0  0  0  0  0  0  0
   11.1253    3.1518   -6.5672 C   0  0  0  0  0  0  0  0  0  0  0  0
   11.8894    4.2834   -6.2647 C   0  0  0  0  0  0  0  0  0  0  0  0
   12.7902    4.2579   -5.2704 F   0  0  0  0  0  0  0  0  0  0  0  0
   11.6818    5.4380   -7.0327 C   0  0  0  0  0  0  0  0  0  0  0  0
   12.2846    6.6705   -6.9534 N   0  0  0  0  0  0  0  0  0  0  0  0
   11.7301    7.3984   -7.9016 C   0  0  0  0  0  0  0  0  0  0  0  0
   12.0381    8.7999   -8.2254 C   0  0  0  0  0  0  0  0  0  0  0  0
   10.7870    6.6753   -8.5903 N   0  0  0  0  0  0  0  0  0  0  0  0
    9.9871    7.1583   -9.6925 C   0  0  0  0  0  0  0  0  0  0  0  0
   10.2068    6.3524  -10.9734 C   0  0  0  0  0  0  0  0  0  0  0  0
    8.5065    7.3060   -9.3346 C   0  0  0  0  0  0  0  0  0  0  0  0
   10.7375    5.4145   -8.0522 C   0  0  0  0  0  0  0  0  0  0  0  0
    9.9656    4.2908   -8.3674 C   0  0  0  0  0  0  0  0  0  0  0  0
    6.9860   -1.1571   -3.8473 N   0  0  0  0  0  0  0  0  0  0  0  0
    6.4089   -0.7923   -2.6808 C   0  0  0  0  0  0  0  0  0  0  0  0
    3.5049   -0.5341   -1.2651 C   0  0  0  0  0  0  0  0  0  0  0  0
    1.9724   -0.5349   -1.2637 C   0  0  0  0  0  0  0  0  0  0  0  0
   -1.6586   -0.0202    1.3838 H   0  0  0  0  0  0  0  0  0  0  0  0
   -0.2551    0.8896    1.9689 H   0  0  0  0  0  0  0  0  0  0  0  0
   -0.2206   -0.8774    1.9699 H   0  0  0  0  0  0  0  0  0  0  0  0
   -0.3639   -0.8973   -0.5131 H   0  0  0  0  0  0  0  0  0  0  0  0
   -0.3822    0.8403   -0.5775 H   0  0  0  0  0  0  0  0  0  0  0  0
    1.6014    2.0540   -0.5202 H   0  0  0  0  0  0  0  0  0  0  0  0
    1.6292    1.7142    1.2147 H   0  0  0  0  0  0  0  0  0  0  0  0
    3.8487    2.3863    0.3697 H   0  0  0  0  0  0  0  0  0  0  0  0
    3.8763    0.7722    1.0910 H   0  0  0  0  0  0  0  0  0  0  0  0
    5.8587    0.1508   -0.2427 H   0  0  0  0  0  0  0  0  0  0  0  0
    5.8057    1.8210   -0.7310 H   0  0  0  0  0  0  0  0  0  0  0  0
    6.2117    2.5615   -3.0184 H   0  0  0  0  0  0  0  0  0  0  0  0
    7.2955    1.9310   -5.1812 H   0  0  0  0  0  0  0  0  0  0  0  0
    7.9742   -1.5916   -6.0771 H   0  0  0  0  0  0  0  0  0  0  0  0
    8.1621   -0.0082  -10.2949 H   0  0  0  0  0  0  0  0  0  0  0  0
   11.2736    2.2470   -5.9808 H   0  0  0  0  0  0  0  0  0  0  0  0
   12.8151    9.1845   -7.5583 H   0  0  0  0  0  0  0  0  0  0  0  0
   11.1482    9.4295   -8.1309 H   0  0  0  0  0  0  0  0  0  0  0  0
   12.3999    8.8950   -9.2546 H   0  0  0  0  0  0  0  0  0  0  0  0
   10.3291    8.1735   -9.9162 H   0  0  0  0  0  0  0  0  0  0  0  0
    9.7062    6.8362  -11.8191 H   0  0  0  0  0  0  0  0  0  0  0  0
    9.8155    5.3345  -10.9010 H   0  0  0  0  0  0  0  0  0  0  0  0
   11.2741    6.2824  -11.2108 H   0  0  0  0  0  0  0  0  0  0  0  0
    7.9747    7.8377  -10.1314 H   0  0  0  0  0  0  0  0  0  0  0  0
    8.3846    7.8803   -8.4096 H   0  0  0  0  0  0  0  0  0  0  0  0
    8.0067    6.3441   -9.1984 H   0  0  0  0  0  0  0  0  0  0  0  0
    9.2460    4.3386   -9.1757 H   0  0  0  0  0  0  0  0  0  0  0  0
    6.1863   -1.6093   -2.0022 H   0  0  0  0  0  0  0  0  0  0  0  0
    3.8751   -1.2364   -0.5058 H   0  0  0  0  0  0  0  0  0  0  0  0
    3.8488   -0.8978   -2.2410 H   0  0  0  0  0  0  0  0  0  0  0  0
    1.6021    0.0477   -2.1183 H   0  0  0  0  0  0  0  0  0  0  0  0
    1.6282   -1.5674   -1.3992 H   0  0  0  0  0  0  0  0  0  0  0  0
  1  2  1  0
  2  3  1  0
  3  4  1  0
  4  5  1  0
  5  6  1  0
  6  7  1  0
  7  8  1  0
  8  9  2  0
  9 10  1  0
 10 11  2  0
 11 12  1  0
 12 13  1  0
 13 14  2  0
 14 15  1  0
 15 16  2  0
 16 17  1  0
 16 18  1  0
 18 19  2  0
 18 20  1  0
 20 21  2  0
 21 22  1  0
 22 23  1  0
 22 24  2  0
 24 25  1  0
 25 26  2  0
 26 27  1  0
 26 28  1  0
 28 29  1  0
 29 30  1  0
 29 31  1  0
 28 32  1  0
 32 33  2  0
 11 34  1  0
 34 35  2  0
  6 36  1  0
 36 37  1  0
 37  3  1  0
 35  8  1  0
 19 13  1  0
 33 20  1  0
 32 24  1  0
  1 38  1  0
  1 39  1  0
  1 40  1  0
  2 41  1  0
  2 42  1  0
  4 43  1  0
  4 44  1  0
  5 45  1  0
  5 46  1  0
  7 47  1  0
  7 48  1  0
  9 49  1  0
 10 50  1  0
 12 51  1  0
 15 52  1  0
 21 53  1  0
 27 54  1  0
 27 55  1  0
 27 56  1  0
 29 57  1  0
 30 58  1  0
 30 59  1  0
 30 60  1  0
 31 61  1  0
 31 62  1  0
 31 63  1  0
 33 64  1  0
 35 65  1  0
 36 66  1  0
 36 67  1  0
 37 68  1  0
 37 69  1  0
M  END
>  <_MoleculeID>  (264) 
smi28

>  <_InputIndex>  (264) 
28

>  <_InputSMILES>  (264) 
CCN1CCN(Cc2ccc(Nc3ncc(F)c(n3)-c3cc(F)c4nc(C)n(C(C)C)c4c3)nc2)CC1

>  <_InputInChIKey>  (264) 
UZWDCWONPYILKI-UHFFFAOYSA-N

>  <_SMILES>  (264) 
CCN1CCN(Cc2ccc(Nc3ncc(F)c(-c4cc(F)c5nc(C)n(C(C)C)c5c4)n3)nc2)CC1

>  <_InChIKey>  (264) 
UZWDCWONPYILKI-UHFFFAOYSA-N

$$$$
smi29_conf0
     RDKit          3D

 60 62  0  0  0  0  0  0  0  0999 V2000
    7.6140    2.0047    3.2944 C   0  0  0  0  0  0  0  0  0  0  0  0
    7.9214    2.6369    2.0508 O   0  0  0  0  0  0  0  0  0  0  0  0
    8.6109    1.8941    1.1201 C   0  0  0  0  0  0  0  0  0  0  0  0
    7.9297    1.1180    0.1832 C   0  0  0  0  0  0  0  0  0  0  0  0
    6.4810    1.0872    0.1882 C   0  0  0  0  0  0  0  0  0  0  0  0
    5.7390   -0.0128   -0.0193 C   0  0  0  0  0  0  0  0  0  0  0  0
    4.2900   -0.0133   -0.0191 C   0  0  0  0  0  0  0  0  0  0  0  0
    3.5788    0.7484    0.9115 C   0  0  0  0  0  0  0  0  0  0  0  0
    2.1761    0.7539    0.9174 C   0  0  0  0  0  0  0  0  0  0  0  0
    1.4280    0.0000    0.0000 C   0  0  0  0  0  0  0  0  0  0  0  0
    0.0000    0.0000    0.0000 N   0  0  0  0  0  0  0  0  0  0  0  0
   -0.9770    0.0000    1.3843 S   0  0  0  0  0  6  0  0  0  0  0  0
   -0.6863   -1.6413    2.0084 C   0  0  0  0  0  0  0  0  0  0  0  0
   -0.5058    0.9592    2.3628 O   0  0  0  0  0  0  0  0  0  0  0  0
   -2.3619    0.0324    0.9487 O   0  0  0  0  0  0  0  0  0  0  0  0
    2.1775   -0.7664   -0.9133 C   0  0  0  0  0  0  0  0  0  0  0  0
    3.5788   -0.7882   -0.9345 C   0  0  0  0  0  0  0  0  0  0  0  0
    8.6582    0.3688   -0.7508 C   0  0  0  0  0  0  0  0  0  0  0  0
   10.0653    0.3576   -0.8074 C   0  0  0  0  0  0  0  0  0  0  0  0
   10.7174    1.1631    0.1390 C   0  0  0  0  0  0  0  0  0  0  0  0
   10.0073    1.9184    1.0840 C   0  0  0  0  0  0  0  0  0  0  0  0
   10.7670    2.7540    2.0499 C   0  0  0  0  0  0  0  0  0  0  0  0
   10.4466    2.3045    3.4920 C   0  0  0  0  0  0  0  0  0  0  0  0
   10.3675    4.2357    1.8797 C   0  0  0  0  0  0  0  0  0  0  0  0
   12.3005    2.6711    1.8769 C   0  0  0  0  0  0  0  0  0  0  0  0
   10.7645   -0.3958   -1.7506 N   0  0  0  0  0  0  0  0  0  0  0  0
   11.6211   -1.3265   -1.2187 C   0  0  0  0  0  0  0  0  0  0  0  0
   12.3647   -2.1289   -1.9862 C   0  0  0  0  0  0  0  0  0  0  0  0
   12.2687   -2.0183   -3.4595 C   0  0  0  0  0  0  0  0  0  0  0  0
   12.9398   -2.7422   -4.1890 O   0  0  0  0  0  0  0  0  0  0  0  0
   11.3807   -1.0538   -3.9148 N   0  0  0  0  0  0  0  0  0  0  0  0
   10.5945   -0.2053   -3.1223 C   0  0  0  0  0  0  0  0  0  0  0  0
    9.8317    0.6236   -3.6230 O   0  0  0  0  0  0  0  0  0  0  0  0
    7.0700    2.7184    3.9188 H   0  0  0  0  0  0  0  0  0  0  0  0
    8.5358    1.7136    3.8076 H   0  0  0  0  0  0  0  0  0  0  0  0
    6.9826    1.1269    3.1253 H   0  0  0  0  0  0  0  0  0  0  0  0
    5.9971    2.0418    0.3840 H   0  0  0  0  0  0  0  0  0  0  0  0
    6.2008   -0.9763   -0.2168 H   0  0  0  0  0  0  0  0  0  0  0  0
    4.1084    1.3470    1.6490 H   0  0  0  0  0  0  0  0  0  0  0  0
    1.6871    1.3648    1.6722 H   0  0  0  0  0  0  0  0  0  0  0  0
   -0.4363   -0.2635   -0.8931 H   0  0  0  0  0  0  0  0  0  0  0  0
   -0.9258   -2.3653    1.2273 H   0  0  0  0  0  0  0  0  0  0  0  0
   -1.3484   -1.7937    2.8641 H   0  0  0  0  0  0  0  0  0  0  0  0
    0.3508   -1.7399    2.3296 H   0  0  0  0  0  0  0  0  0  0  0  0
    1.6389   -1.3731   -1.6402 H   0  0  0  0  0  0  0  0  0  0  0  0
    4.1138   -1.3974   -1.6594 H   0  0  0  0  0  0  0  0  0  0  0  0
    8.1091   -0.2367   -1.4708 H   0  0  0  0  0  0  0  0  0  0  0  0
   11.8020    1.2329    0.1640 H   0  0  0  0  0  0  0  0  0  0  0  0
   11.0228    2.8829    4.2236 H   0  0  0  0  0  0  0  0  0  0  0  0
   10.6895    1.2453    3.6382 H   0  0  0  0  0  0  0  0  0  0  0  0
    9.3882    2.4366    3.7423 H   0  0  0  0  0  0  0  0  0  0  0  0
   10.9385    4.8796    2.5589 H   0  0  0  0  0  0  0  0  0  0  0  0
    9.3065    4.4060    2.0931 H   0  0  0  0  0  0  0  0  0  0  0  0
   10.5564    4.5802    0.8559 H   0  0  0  0  0  0  0  0  0  0  0  0
   12.8157    3.3006    2.6125 H   0  0  0  0  0  0  0  0  0  0  0  0
   12.6141    3.0146    0.8843 H   0  0  0  0  0  0  0  0  0  0  0  0
   12.6673    1.6473    2.0159 H   0  0  0  0  0  0  0  0  0  0  0  0
   11.6825   -1.3980   -0.1365 H   0  0  0  0  0  0  0  0  0  0  0  0
   13.0399   -2.8625   -1.5630 H   0  0  0  0  0  0  0  0  0  0  0  0
   11.2902   -0.9512   -4.9217 H   0  0  0  0  0  0  0  0  0  0  0  0
  1  2  1  0
  2  3  1  0
  3  4  2  0
  4  5  1  0
  5  6  2  0
  6  7  1  0
  7  8  2  0
  8  9  1  0
  9 10  2  0
 10 11  1  0
 11 12  1  0
 12 13  1  0
 12 14  2  0
 12 15  2  0
 10 16  1  0
 16 17  2  0
  4 18  1  0
 18 19  2  0
 19 20  1  0
 20 21  2  0
 21 22  1  0
 22 23  1  0
 22 24  1  0
 22 25  1  0
 19 26  1  0
 26 27  1  0
 27 28  2  0
 28 29  1  0
 29 30  2  0
 29 31  1  0
 31 32  1  0
 32 33  2  0
 21  3  1  0
 32 26  1  0
 17  7  1  0
  1 34  1  0
  1 35  1  0
  1 36  1  0
  5 37  1  0
  6 38  1  0
  8 39  1  0
  9 40  1  0
 11 41  1  0
 13 42  1  0
 13 43  1  0
 13 44  1  0
 16 45  1  0
 17 46  1  0
 18 47  1  0
 20 48  1  0
 23 49  1  0
 23 50  1  0
 23 51  1  0
 24 52  1  0
 24 53  1  0
 24 54  1  0
 25 55  1  0
 25 56  1  0
 25 57  1  0
 27 58  1  0
 28 59  1  0
 31 60  1  0
M  END
>  <_MoleculeID>  (265) 
smi29

>  <_InputIndex>  (265) 
29

>  <_InputSMILES>  (265) 
COc1c(\C=C\c2ccc(NS(C)(=O)=O)cc2)cc(cc1C(C)(C)C)-n1ccc(=O)[nH]c1=O

>  <_InputInChIKey>  (265) 
XMZSTQYSBYEENY-RMKNXTFCSA-N

>  <_SMILES>  (265) 
COc1c(/C=C/c2ccc(NS(C)(=O)=O)cc2)cc(-n2ccc(=O)[nH]c2=O)cc1C(C)(C)C

>  <_InChIKey>  (265) 
XMZSTQYSBYEENY-RMKNXTFCSA-N

$$$$
smi29_conf1
     RDKit          3D

 60 62  0  0  0  0  0  0  0  0999 V2000
    7.6140   -2.0047   -3.2944 C   0  0  0  0  0  0  0  0  0  0  0  0
    7.9214   -2.6369   -2.0508 O   0  0  0  0  0  0  0  0  0  0  0  0
    8.6109   -1.8941   -1.1201 C   0  0  0  0  0  0  0  0  0  0  0  0
    7.9297   -1.1180   -0.1832 C   0  0  0  0  0  0  0  0  0  0  0  0
    6.4810   -1.0872   -0.1882 C   0  0  0  0  0  0  0  0  0  0  0  0
    5.7390    0.0128    0.0193 C   0  0  0  0  0  0  0  0  0  0  0  0
    4.2900    0.0133    0.0191 C   0  0  0  0  0  0  0  0  0  0  0  0
    3.5788   -0.7484   -0.9115 C   0  0  0  0  0  0  0  0  0  0  0  0
    2.1761   -0.7539   -0.9174 C   0  0  0  0  0  0  0  0  0  0  0  0
    1.4280    0.0000   -0.0000 C   0  0  0  0  0  0  0  0  0  0  0  0
    0.0000    0.0000    0.0000 N   0  0  0  0  0  0  0  0  0  0  0  0
   -0.9770    0.0000    1.3843 S   0  0  0  0  0  6  0  0  0  0  0  0
   -0.6863   -1.6413    2.0084 C   0  0  0  0  0  0  0  0  0  0  0  0
   -0.5058    0.9592    2.3628 O   0  0  0  0  0  0  0  0  0  0  0  0
   -2.3619    0.0324    0.9487 O   0  0  0  0  0  0  0  0  0  0  0  0
    2.1775    0.7664    0.9133 C   0  0  0  0  0  0  0  0  0  0  0  0
    3.5788    0.7882    0.9345 C   0  0  0  0  0  0  0  0  0  0  0  0
    8.6582   -0.3688    0.7508 C   0  0  0  0  0  0  0  0  0  0  0  0
   10.0653   -0.3576    0.8074 C   0  0  0  0  0  0  0  0  0  0  0  0
   10.7174   -1.1631   -0.1390 C   0  0  0  0  0  0  0  0  0  0  0  0
   10.0073   -1.9184   -1.0840 C   0  0  0  0  0  0  0  0  0  0  0  0
   10.7670   -2.7540   -2.0499 C   0  0  0  0  0  0  0  0  0  0  0  0
   10.4466   -2.3045   -3.4920 C   0  0  0  0  0  0  0  0  0  0  0  0
   10.3675   -4.2357   -1.8797 C   0  0  0  0  0  0  0  0  0  0  0  0
   12.3005   -2.6711   -1.8769 C   0  0  0  0  0  0  0  0  0  0  0  0
   10.7645    0.3958    1.7506 N   0  0  0  0  0  0  0  0  0  0  0  0
   11.6211    1.3265    1.2187 C   0  0  0  0  0  0  0  0  0  0  0  0
   12.3647    2.1289    1.9862 C   0  0  0  0  0  0  0  0  0  0  0  0
   12.2687    2.0183    3.4595 C   0  0  0  0  0  0  0  0  0  0  0  0
   12.9398    2.7422    4.1890 O   0  0  0  0  0  0  0  0  0  0  0  0
   11.3807    1.0538    3.9148 N   0  0  0  0  0  0  0  0  0  0  0  0
   10.5945    0.2053    3.1223 C   0  0  0  0  0  0  0  0  0  0  0  0
    9.8317   -0.6236    3.6230 O   0  0  0  0  0  0  0  0  0  0  0  0
    7.0700   -2.7184   -3.9188 H   0  0  0  0  0  0  0  0  0  0  0  0
    8.5358   -1.7136   -3.8076 H   0  0  0  0  0  0  0  0  0  0  0  0
    6.9826   -1.1269   -3.1253 H   0  0  0  0  0  0  0  0  0  0  0  0
    5.9971   -2.0418   -0.3840 H   0  0  0  0  0  0  0  0  0  0  0  0
    6.2008    0.9763    0.2168 H   0  0  0  0  0  0  0  0  0  0  0  0
    4.1084   -1.3470   -1.6490 H   0  0  0  0  0  0  0  0  0  0  0  0
    1.6871   -1.3648   -1.6722 H   0  0  0  0  0  0  0  0  0  0  0  0
   -0.4363   -0.2635   -0.8931 H   0  0  0  0  0  0  0  0  0  0  0  0
   -0.9258   -2.3653    1.2273 H   0  0  0  0  0  0  0  0  0  0  0  0
   -1.3484   -1.7937    2.8641 H   0  0  0  0  0  0  0  0  0  0  0  0
    0.3508   -1.7399    2.3296 H   0  0  0  0  0  0  0  0  0  0  0  0
    1.6389    1.3731    1.6402 H   0  0  0  0  0  0  0  0  0  0  0  0
    4.1138    1.3974    1.6594 H   0  0  0  0  0  0  0  0  0  0  0  0
    8.1091    0.2367    1.4708 H   0  0  0  0  0  0  0  0  0  0  0  0
   11.8020   -1.2329   -0.1640 H   0  0  0  0  0  0  0  0  0  0  0  0
   11.0228   -2.8829   -4.2236 H   0  0  0  0  0  0  0  0  0  0  0  0
   10.6895   -1.2453   -3.6382 H   0  0  0  0  0  0  0  0  0  0  0  0
    9.3882   -2.4366   -3.7423 H   0  0  0  0  0  0  0  0  0  0  0  0
   10.9385   -4.8796   -2.5589 H   0  0  0  0  0  0  0  0  0  0  0  0
    9.3065   -4.4060   -2.0931 H   0  0  0  0  0  0  0  0  0  0  0  0
   10.5564   -4.5802   -0.8559 H   0  0  0  0  0  0  0  0  0  0  0  0
   12.8157   -3.3006   -2.6125 H   0  0  0  0  0  0  0  0  0  0  0  0
   12.6141   -3.0146   -0.8843 H   0  0  0  0  0  0  0  0  0  0  0  0
   12.6673   -1.6473   -2.0159 H   0  0  0  0  0  0  0  0  0  0  0  0
   11.6825    1.3980    0.1365 H   0  0  0  0  0  0  0  0  0  0  0  0
   13.0399    2.8625    1.5630 H   0  0  0  0  0  0  0  0  0  0  0  0
   11.2902    0.9512    4.9217 H   0  0  0  0  0  0  0  0  0  0  0  0
  1  2  1  0
  2  3  1  0
  3  4  2  0
  4  5  1  0
  5  6  2  0
  6  7  1  0
  7  8  2  0
  8  9  1  0
  9 10  2  0
 10 11  1  0
 11 12  1  0
 12 13  1  0
 12 14  2  0
 12 15  2  0
 10 16  1  0
 16 17  2  0
  4 18  1  0
 18 19  2  0
 19 20  1  0
 20 21  2  0
 21 22  1  0
 22 23  1  0
 22 24  1  0
 22 25  1  0
 19 26  1  0
 26 27  1  0
 27 28  2  0
 28 29  1  0
 29 30  2  0
 29 31  1  0
 31 32  1  0
 32 33  2  0
 21  3  1  0
 32 26  1  0
 17  7  1  0
  1 34  1  0
  1 35  1  0
  1 36  1  0
  5 37  1  0
  6 38  1  0
  8 39  1  0
  9 40  1  0
 11 41  1  0
 13 42  1  0
 13 43  1  0
 13 44  1  0
 16 45  1  0
 17 46  1  0
 18 47  1  0
 20 48  1  0
 23 49  1  0
 23 50  1  0
 23 51  1  0
 24 52  1  0
 24 53  1  0
 24 54  1  0
 25 55  1  0
 25 56  1  0
 25 57  1  0
 27 58  1  0
 28 59  1  0
 31 60  1  0
M  END
>  <_MoleculeID>  (266) 
smi29

>  <_InputIndex>  (266) 
29

>  <_InputSMILES>  (266) 
COc1c(\C=C\c2ccc(NS(C)(=O)=O)cc2)cc(cc1C(C)(C)C)-n1ccc(=O)[nH]c1=O

>  <_InputInChIKey>  (266) 
XMZSTQYSBYEENY-RMKNXTFCSA-N

>  <_SMILES>  (266) 
COc1c(/C=C/c2ccc(NS(C)(=O)=O)cc2)cc(-n2ccc(=O)[nH]c2=O)cc1C(C)(C)C

>  <_InChIKey>  (266) 
XMZSTQYSBYEENY-RMKNXTFCSA-N

$$$$
smi29_conf2
     RDKit          3D

 60 62  0  0  0  0  0  0  0  0999 V2000
    7.6130   -2.9011    2.5812 C   0  0  0  0  0  0  0  0  0  0  0  0
    7.9212   -1.5668    2.9878 O   0  0  0  0  0  0  0  0  0  0  0  0
    8.6109   -0.7796    2.0945 C   0  0  0  0  0  0  0  0  0  0  0  0
    7.9299    0.0087    1.1677 C   0  0  0  0  0  0  0  0  0  0  0  0
    6.4812   -0.0009    1.1385 C   0  0  0  0  0  0  0  0  0  0  0  0
    5.7390    0.0128    0.0193 C   0  0  0  0  0  0  0  0  0  0  0  0
    4.2900    0.0133    0.0191 C   0  0  0  0  0  0  0  0  0  0  0  0
    3.5788   -0.7484   -0.9115 C   0  0  0  0  0  0  0  0  0  0  0  0
    2.1761   -0.7539   -0.9174 C   0  0  0  0  0  0  0  0  0  0  0  0
    1.4280    0.0000   -0.0000 C   0  0  0  0  0  0  0  0  0  0  0  0
    0.0000    0.0000    0.0000 N   0  0  0  0  0  0  0  0  0  0  0  0
   -0.9770    0.0000    1.3843 S   0  0  0  0  0  6  0  0  0  0  0  0
   -0.6863   -1.6413    2.0084 C   0  0  0  0  0  0  0  0  0  0  0  0
   -0.5058    0.9592    2.3628 O   0  0  0  0  0  0  0  0  0  0  0  0
   -2.3619    0.0324    0.9487 O   0  0  0  0  0  0  0  0  0  0  0  0
    2.1775    0.7664    0.9133 C   0  0  0  0  0  0  0  0  0  0  0  0
    3.5788    0.7882    0.9345 C   0  0  0  0  0  0  0  0  0  0  0  0
    8.6587    0.7980    0.2675 C   0  0  0  0  0  0  0  0  0  0  0  0
   10.0658    0.8511    0.2464 C   0  0  0  0  0  0  0  0  0  0  0  0
   10.7177    0.0587    1.2039 C   0  0  0  0  0  0  0  0  0  0  0  0
   10.0074   -0.7405    2.1119 C   0  0  0  0  0  0  0  0  0  0  0  0
   10.7668   -1.5470    3.1024 C   0  0  0  0  0  0  0  0  0  0  0  0
   10.4456   -3.0450    2.9102 C   0  0  0  0  0  0  0  0  0  0  0  0
   10.3678   -1.1219    4.5321 C   0  0  0  0  0  0  0  0  0  0  0  0
   12.3004   -1.3918    2.9904 C   0  0  0  0  0  0  0  0  0  0  0  0
   10.7652    1.6488   -0.6595 N   0  0  0  0  0  0  0  0  0  0  0  0
   10.4830    2.9892   -0.5785 C   0  0  0  0  0  0  0  0  0  0  0  0
   11.0678    3.8883   -1.3757 C   0  0  0  0  0  0  0  0  0  0  0  0
   12.0537    3.4339   -2.3825 C   0  0  0  0  0  0  0  0  0  0  0  0
   12.6064    4.2373   -3.1279 O   0  0  0  0  0  0  0  0  0  0  0  0
   12.2813    2.0649   -2.3986 N   0  0  0  0  0  0  0  0  0  0  0  0
   11.6759    1.1102   -1.5692 C   0  0  0  0  0  0  0  0  0  0  0  0
   11.9454   -0.0892   -1.6604 O   0  0  0  0  0  0  0  0  0  0  0  0
    7.0690   -3.3918    3.3926 H   0  0  0  0  0  0  0  0  0  0  0  0
    8.5345   -3.4575    2.3835 H   0  0  0  0  0  0  0  0  0  0  0  0
    6.9815   -2.8867    1.6875 H   0  0  0  0  0  0  0  0  0  0  0  0
    5.9975   -0.0276    2.1127 H   0  0  0  0  0  0  0  0  0  0  0  0
    6.2006    0.0398   -0.9639 H   0  0  0  0  0  0  0  0  0  0  0  0
    4.1084   -1.3470   -1.6490 H   0  0  0  0  0  0  0  0  0  0  0  0
    1.6871   -1.3648   -1.6722 H   0  0  0  0  0  0  0  0  0  0  0  0
   -0.4363   -0.2635   -0.8931 H   0  0  0  0  0  0  0  0  0  0  0  0
   -0.9258   -2.3653    1.2273 H   0  0  0  0  0  0  0  0  0  0  0  0
   -1.3484   -1.7937    2.8641 H   0  0  0  0  0  0  0  0  0  0  0  0
    0.3508   -1.7399    2.3296 H   0  0  0  0  0  0  0  0  0  0  0  0
    1.6389    1.3731    1.6402 H   0  0  0  0  0  0  0  0  0  0  0  0
    4.1138    1.3974    1.6594 H   0  0  0  0  0  0  0  0  0  0  0  0
    8.1097    1.4023   -0.4537 H   0  0  0  0  0  0  0  0  0  0  0  0
   11.8023    0.0456    1.2768 H   0  0  0  0  0  0  0  0  0  0  0  0
   11.0216   -3.6655    3.6068 H   0  0  0  0  0  0  0  0  0  0  0  0
   10.6882   -3.3731    1.8925 H   0  0  0  0  0  0  0  0  0  0  0  0
    9.3872   -3.2681    3.0840 H   0  0  0  0  0  0  0  0  0  0  0  0
   10.9387   -1.6793    5.2840 H   0  0  0  0  0  0  0  0  0  0  0  0
    9.3068   -1.3020    4.7371 H   0  0  0  0  0  0  0  0  0  0  0  0
   10.5573   -0.0540    4.6936 H   0  0  0  0  0  0  0  0  0  0  0  0
   12.8155   -2.0072    3.7379 H   0  0  0  0  0  0  0  0  0  0  0  0
   12.6145   -0.3548    3.1562 H   0  0  0  0  0  0  0  0  0  0  0  0
   12.6668   -1.7066    2.0063 H   0  0  0  0  0  0  0  0  0  0  0  0
    9.7580    3.3100    0.1641 H   0  0  0  0  0  0  0  0  0  0  0  0
   10.8428    4.9456   -1.3091 H   0  0  0  0  0  0  0  0  0  0  0  0
   12.9529    1.7188   -3.0782 H   0  0  0  0  0  0  0  0  0  0  0  0
  1  2  1  0
  2  3  1  0
  3  4  2  0
  4  5  1  0
  5  6  2  0
  6  7  1  0
  7  8  2  0
  8  9  1  0
  9 10  2  0
 10 11  1  0
 11 12  1  0
 12 13  1  0
 12 14  2  0
 12 15  2  0
 10 16  1  0
 16 17  2  0
  4 18  1  0
 18 19  2  0
 19 20  1  0
 20 21  2  0
 21 22  1  0
 22 23  1  0
 22 24  1  0
 22 25  1  0
 19 26  1  0
 26 27  1  0
 27 28  2  0
 28 29  1  0
 29 30  2  0
 29 31  1  0
 31 32  1  0
 32 33  2  0
 21  3  1  0
 32 26  1  0
 17  7  1  0
  1 34  1  0
  1 35  1  0
  1 36  1  0
  5 37  1  0
  6 38  1  0
  8 39  1  0
  9 40  1  0
 11 41  1  0
 13 42  1  0
 13 43  1  0
 13 44  1  0
 16 45  1  0
 17 46  1  0
 18 47  1  0
 20 48  1  0
 23 49  1  0
 23 50  1  0
 23 51  1  0
 24 52  1  0
 24 53  1  0
 24 54  1  0
 25 55  1  0
 25 56  1  0
 25 57  1  0
 27 58  1  0
 28 59  1  0
 31 60  1  0
M  END
>  <_MoleculeID>  (267) 
smi29

>  <_InputIndex>  (267) 
29

>  <_InputSMILES>  (267) 
COc1c(\C=C\c2ccc(NS(C)(=O)=O)cc2)cc(cc1C(C)(C)C)-n1ccc(=O)[nH]c1=O

>  <_InputInChIKey>  (267) 
XMZSTQYSBYEENY-RMKNXTFCSA-N

>  <_SMILES>  (267) 
COc1c(/C=C/c2ccc(NS(C)(=O)=O)cc2)cc(-n2ccc(=O)[nH]c2=O)cc1C(C)(C)C

>  <_InChIKey>  (267) 
XMZSTQYSBYEENY-RMKNXTFCSA-N

$$$$
smi29_conf3
     RDKit          3D

 60 62  0  0  0  0  0  0  0  0999 V2000
    7.6155   -1.8796    3.3895 C   0  0  0  0  0  0  0  0  0  0  0  0
    7.9229   -0.4865    3.3151 O   0  0  0  0  0  0  0  0  0  0  0  0
    8.6119   -0.0519    2.2061 C   0  0  0  0  0  0  0  0  0  0  0  0
    7.9302    0.3715    1.0658 C   0  0  0  0  0  0  0  0  0  0  0  0
    6.4815    0.3516    1.0423 C   0  0  0  0  0  0  0  0  0  0  0  0
    5.7390   -0.0187   -0.0137 C   0  0  0  0  0  0  0  0  0  0  0  0
    4.2900   -0.0191   -0.0134 C   0  0  0  0  0  0  0  0  0  0  0  0
    3.5788    1.0150    0.6006 C   0  0  0  0  0  0  0  0  0  0  0  0
    2.1761    1.0222    0.6042 C   0  0  0  0  0  0  0  0  0  0  0  0
    1.4280    0.0000    0.0000 C   0  0  0  0  0  0  0  0  0  0  0  0
    0.0000    0.0000    0.0000 N   0  0  0  0  0  0  0  0  0  0  0  0
   -0.9770    0.0000    1.3843 S   0  0  0  0  0  6  0  0  0  0  0  0
   -0.6863   -1.6413    2.0084 C   0  0  0  0  0  0  0  0  0  0  0  0
   -0.5058    0.9592    2.3628 O   0  0  0  0  0  0  0  0  0  0  0  0
   -2.3619    0.0324    0.9487 O   0  0  0  0  0  0  0  0  0  0  0  0
    2.1775   -1.0325   -0.5961 C   0  0  0  0  0  0  0  0  0  0  0  0
    3.5788   -1.0603   -0.6086 C   0  0  0  0  0  0  0  0  0  0  0  0
    8.6582    0.8057   -0.0503 C   0  0  0  0  0  0  0  0  0  0  0  0
   10.0653    0.8492   -0.0889 C   0  0  0  0  0  0  0  0  0  0  0  0
   10.7179    0.4323    1.0815 C   0  0  0  0  0  0  0  0  0  0  0  0
   10.0084   -0.0084    2.2084 C   0  0  0  0  0  0  0  0  0  0  0  0
   10.7685   -0.4271    3.4147 C   0  0  0  0  0  0  0  0  0  0  0  0
   10.4483   -1.9007    3.7466 C   0  0  0  0  0  0  0  0  0  0  0  0
   10.3696    0.4611    4.6130 C   0  0  0  0  0  0  0  0  0  0  0  0
   12.3020   -0.3188    3.2557 C   0  0  0  0  0  0  0  0  0  0  0  0
   10.7639    1.2893   -1.2133 N   0  0  0  0  0  0  0  0  0  0  0  0
   10.5414    0.5532   -2.3498 C   0  0  0  0  0  0  0  0  0  0  0  0
   11.1339    0.8432   -3.5120 C   0  0  0  0  0  0  0  0  0  0  0  0
   12.0623    1.9941   -3.5867 C   0  0  0  0  0  0  0  0  0  0  0  0
   12.6206    2.2837   -4.6408 O   0  0  0  0  0  0  0  0  0  0  0  0
   12.2316    2.6845   -2.3947 N   0  0  0  0  0  0  0  0  0  0  0  0
   11.6173    2.3923   -1.1686 C   0  0  0  0  0  0  0  0  0  0  0  0
   11.8328    3.0682   -0.1604 O   0  0  0  0  0  0  0  0  0  0  0  0
    7.0720   -2.0635    4.3200 H   0  0  0  0  0  0  0  0  0  0  0  0
    8.5374   -2.4695    3.3936 H   0  0  0  0  0  0  0  0  0  0  0  0
    6.9838   -2.1721    2.5450 H   0  0  0  0  0  0  0  0  0  0  0  0
    5.9980    0.6594    1.9671 H   0  0  0  0  0  0  0  0  0  0  0  0
    6.2004   -0.3293   -0.9470 H   0  0  0  0  0  0  0  0  0  0  0  0
    4.1084    1.8298    1.0888 H   0  0  0  0  0  0  0  0  0  0  0  0
    1.6871    1.8544    1.1046 H   0  0  0  0  0  0  0  0  0  0  0  0
   -0.4363   -0.2635   -0.8931 H   0  0  0  0  0  0  0  0  0  0  0  0
   -0.9258   -2.3653    1.2273 H   0  0  0  0  0  0  0  0  0  0  0  0
   -1.3484   -1.7937    2.8641 H   0  0  0  0  0  0  0  0  0  0  0  0
    0.3508   -1.7399    2.3296 H   0  0  0  0  0  0  0  0  0  0  0  0
    1.6389   -1.8512   -1.0717 H   0  0  0  0  0  0  0  0  0  0  0  0
    4.1138   -1.8806   -1.0814 H   0  0  0  0  0  0  0  0  0  0  0  0
    8.1087    1.1266   -0.9344 H   0  0  0  0  0  0  0  0  0  0  0  0
   11.8026    0.4455    1.1540 H   0  0  0  0  0  0  0  0  0  0  0  0
   11.0249   -2.2452    4.6131 H   0  0  0  0  0  0  0  0  0  0  0  0
   10.6909   -2.5570    2.9024 H   0  0  0  0  0  0  0  0  0  0  0  0
    9.3901   -2.0515    3.9867 H   0  0  0  0  0  0  0  0  0  0  0  0
   10.9410    0.1949    5.5100 H   0  0  0  0  0  0  0  0  0  0  0  0
    9.3087    0.3614    4.8677 H   0  0  0  0  0  0  0  0  0  0  0  0
   10.5584    1.5200    4.3994 H   0  0  0  0  0  0  0  0  0  0  0  0
   12.8177   -0.6411    4.1684 H   0  0  0  0  0  0  0  0  0  0  0  0
   12.6155    0.7127    3.0567 H   0  0  0  0  0  0  0  0  0  0  0  0
   12.6684   -0.9510    2.4384 H   0  0  0  0  0  0  0  0  0  0  0  0
    9.8582   -0.2886   -2.2822 H   0  0  0  0  0  0  0  0  0  0  0  0
   10.9560    0.2601   -4.4072 H   0  0  0  0  0  0  0  0  0  0  0  0
   12.8627    3.4808   -2.4105 H   0  0  0  0  0  0  0  0  0  0  0  0
  1  2  1  0
  2  3  1  0
  3  4  2  0
  4  5  1  0
  5  6  2  0
  6  7  1  0
  7  8  2  0
  8  9  1  0
  9 10  2  0
 10 11  1  0
 11 12  1  0
 12 13  1  0
 12 14  2  0
 12 15  2  0
 10 16  1  0
 16 17  2  0
  4 18  1  0
 18 19  2  0
 19 20  1  0
 20 21  2  0
 21 22  1  0
 22 23  1  0
 22 24  1  0
 22 25  1  0
 19 26  1  0
 26 27  1  0
 27 28  2  0
 28 29  1  0
 29 30  2  0
 29 31  1  0
 31 32  1  0
 32 33  2  0
 21  3  1  0
 32 26  1  0
 17  7  1  0
  1 34  1  0
  1 35  1  0
  1 36  1  0
  5 37  1  0
  6 38  1  0
  8 39  1  0
  9 40  1  0
 11 41  1  0
 13 42  1  0
 13 43  1  0
 13 44  1  0
 16 45  1  0
 17 46  1  0
 18 47  1  0
 20 48  1  0
 23 49  1  0
 23 50  1  0
 23 51  1  0
 24 52  1  0
 24 53  1  0
 24 54  1  0
 25 55  1  0
 25 56  1  0
 25 57  1  0
 27 58  1  0
 28 59  1  0
 31 60  1  0
M  END
>  <_MoleculeID>  (268) 
smi29

>  <_InputIndex>  (268) 
29

>  <_InputSMILES>  (268) 
COc1c(\C=C\c2ccc(NS(C)(=O)=O)cc2)cc(cc1C(C)(C)C)-n1ccc(=O)[nH]c1=O

>  <_InputInChIKey>  (268) 
XMZSTQYSBYEENY-RMKNXTFCSA-N

>  <_SMILES>  (268) 
COc1c(/C=C/c2ccc(NS(C)(=O)=O)cc2)cc(-n2ccc(=O)[nH]c2=O)cc1C(C)(C)C

>  <_InChIKey>  (268) 
XMZSTQYSBYEENY-RMKNXTFCSA-N

$$$$
smi29_conf4
     RDKit          3D

 60 62  0  0  0  0  0  0  0  0999 V2000
    7.5538   -0.8998   -4.2709 C   0  0  0  0  0  0  0  0  0  0  0  0
    7.8997   -1.5275   -3.0352 O   0  0  0  0  0  0  0  0  0  0  0  0
    8.6000   -0.7747   -2.1208 C   0  0  0  0  0  0  0  0  0  0  0  0
    7.9299   -0.0087   -1.1677 C   0  0  0  0  0  0  0  0  0  0  0  0
    6.4812    0.0009   -1.1385 C   0  0  0  0  0  0  0  0  0  0  0  0
    5.7390   -0.0128   -0.0193 C   0  0  0  0  0  0  0  0  0  0  0  0
    4.2900   -0.0133   -0.0191 C   0  0  0  0  0  0  0  0  0  0  0  0
    3.5788    0.7484    0.9115 C   0  0  0  0  0  0  0  0  0  0  0  0
    2.1761    0.7539    0.9174 C   0  0  0  0  0  0  0  0  0  0  0  0
    1.4280    0.0000    0.0000 C   0  0  0  0  0  0  0  0  0  0  0  0
    0.0000    0.0000    0.0000 N   0  0  0  0  0  0  0  0  0  0  0  0
   -0.9770    0.0000    1.3843 S   0  0  0  0  0  6  0  0  0  0  0  0
   -0.6863   -1.6413    2.0084 C   0  0  0  0  0  0  0  0  0  0  0  0
   -0.5058    0.9592    2.3628 O   0  0  0  0  0  0  0  0  0  0  0  0
   -2.3619    0.0324    0.9487 O   0  0  0  0  0  0  0  0  0  0  0  0
    2.1775   -0.7664   -0.9133 C   0  0  0  0  0  0  0  0  0  0  0  0
    3.5788   -0.7882   -0.9345 C   0  0  0  0  0  0  0  0  0  0  0  0
    8.6693    0.7510   -0.2509 C   0  0  0  0  0  0  0  0  0  0  0  0
   10.0770    0.7828   -0.2275 C   0  0  0  0  0  0  0  0  0  0  0  0
   10.7183   -0.0130   -1.1893 C   0  0  0  0  0  0  0  0  0  0  0  0
    9.9972   -0.7786   -2.1176 C   0  0  0  0  0  0  0  0  0  0  0  0
   10.7459   -1.6030   -3.1015 C   0  0  0  0  0  0  0  0  0  0  0  0
   10.3850   -1.1581   -4.5355 C   0  0  0  0  0  0  0  0  0  0  0  0
   10.3723   -3.0904   -2.9225 C   0  0  0  0  0  0  0  0  0  0  0  0
   12.2818   -1.4976   -2.9648 C   0  0  0  0  0  0  0  0  0  0  0  0
   10.7872    1.5463    0.6992 N   0  0  0  0  0  0  0  0  0  0  0  0
   10.5439    2.8952    0.6358 C   0  0  0  0  0  0  0  0  0  0  0  0
   11.1437    3.7650    1.4540 C   0  0  0  0  0  0  0  0  0  0  0  0
   12.1037    3.2675    2.4654 C   0  0  0  0  0  0  0  0  0  0  0  0
   12.6694    4.0434    3.2300 O   0  0  0  0  0  0  0  0  0  0  0  0
   12.2926    1.8925    2.4628 N   0  0  0  0  0  0  0  0  0  0  0  0
   11.6709    0.9683    1.6112 C   0  0  0  0  0  0  0  0  0  0  0  0
   11.9055   -0.2396    1.6868 O   0  0  0  0  0  0  0  0  0  0  0  0
    7.0057   -1.6214   -4.8826 H   0  0  0  0  0  0  0  0  0  0  0  0
    8.4588   -0.5952   -4.8056 H   0  0  0  0  0  0  0  0  0  0  0  0
    6.9138   -0.0313   -4.0866 H   0  0  0  0  0  0  0  0  0  0  0  0
    5.9975    0.0276   -2.1127 H   0  0  0  0  0  0  0  0  0  0  0  0
    6.2006   -0.0398    0.9639 H   0  0  0  0  0  0  0  0  0  0  0  0
    4.1084    1.3470    1.6490 H   0  0  0  0  0  0  0  0  0  0  0  0
    1.6871    1.3648    1.6722 H   0  0  0  0  0  0  0  0  0  0  0  0
   -0.4363   -0.2635   -0.8931 H   0  0  0  0  0  0  0  0  0  0  0  0
   -0.9258   -2.3653    1.2273 H   0  0  0  0  0  0  0  0  0  0  0  0
   -1.3484   -1.7937    2.8641 H   0  0  0  0  0  0  0  0  0  0  0  0
    0.3508   -1.7399    2.3296 H   0  0  0  0  0  0  0  0  0  0  0  0
    1.6389   -1.3731   -1.6402 H   0  0  0  0  0  0  0  0  0  0  0  0
    4.1138   -1.3974   -1.6594 H   0  0  0  0  0  0  0  0  0  0  0  0
    8.1286    1.3484    0.4822 H   0  0  0  0  0  0  0  0  0  0  0  0
   11.8029   -0.0670   -1.2401 H   0  0  0  0  0  0  0  0  0  0  0  0
   10.9521   -1.7280   -5.2808 H   0  0  0  0  0  0  0  0  0  0  0  0
   10.6089   -0.0955   -4.6870 H   0  0  0  0  0  0  0  0  0  0  0  0
    9.3231   -1.3057   -4.7607 H   0  0  0  0  0  0  0  0  0  0  0  0
   10.9364   -3.7258   -3.6153 H   0  0  0  0  0  0  0  0  0  0  0  0
    9.3092   -3.2762   -3.1109 H   0  0  0  0  0  0  0  0  0  0  0  0
   10.5904   -3.4321   -1.9037 H   0  0  0  0  0  0  0  0  0  0  0  0
   12.7886   -2.1195   -3.7126 H   0  0  0  0  0  0  0  0  0  0  0  0
   12.6237   -1.8365   -1.9800 H   0  0  0  0  0  0  0  0  0  0  0  0
   12.6301   -0.4686   -3.1120 H   0  0  0  0  0  0  0  0  0  0  0  0
    9.8375    3.2478   -0.1104 H   0  0  0  0  0  0  0  0  0  0  0  0
   10.9493    4.8292    1.4013 H   0  0  0  0  0  0  0  0  0  0  0  0
   12.9456    1.5172    3.1449 H   0  0  0  0  0  0  0  0  0  0  0  0
  1  2  1  0
  2  3  1  0
  3  4  2  0
  4  5  1  0
  5  6  2  0
  6  7  1  0
  7  8  2  0
  8  9  1  0
  9 10  2  0
 10 11  1  0
 11 12  1  0
 12 13  1  0
 12 14  2  0
 12 15  2  0
 10 16  1  0
 16 17  2  0
  4 18  1  0
 18 19  2  0
 19 20  1  0
 20 21  2  0
 21 22  1  0
 22 23  1  0
 22 24  1  0
 22 25  1  0
 19 26  1  0
 26 27  1  0
 27 28  2  0
 28 29  1  0
 29 30  2  0
 29 31  1  0
 31 32  1  0
 32 33  2  0
 21  3  1  0
 32 26  1  0
 17  7  1  0
  1 34  1  0
  1 35  1  0
  1 36  1  0
  5 37  1  0
  6 38  1  0
  8 39  1  0
  9 40  1  0
 11 41  1  0
 13 42  1  0
 13 43  1  0
 13 44  1  0
 16 45  1  0
 17 46  1  0
 18 47  1  0
 20 48  1  0
 23 49  1  0
 23 50  1  0
 23 51  1  0
 24 52  1  0
 24 53  1  0
 24 54  1  0
 25 55  1  0
 25 56  1  0
 25 57  1  0
 27 58  1  0
 28 59  1  0
 31 60  1  0
M  END
>  <_MoleculeID>  (269) 
smi29

>  <_InputIndex>  (269) 
29

>  <_InputSMILES>  (269) 
COc1c(\C=C\c2ccc(NS(C)(=O)=O)cc2)cc(cc1C(C)(C)C)-n1ccc(=O)[nH]c1=O

>  <_InputInChIKey>  (269) 
XMZSTQYSBYEENY-RMKNXTFCSA-N

>  <_SMILES>  (269) 
COc1c(/C=C/c2ccc(NS(C)(=O)=O)cc2)cc(-n2ccc(=O)[nH]c2=O)cc1C(C)(C)C

>  <_InChIKey>  (269) 
XMZSTQYSBYEENY-RMKNXTFCSA-N

$$$$
smi29_conf5
     RDKit          3D

 60 62  0  0  0  0  0  0  0  0999 V2000
    7.5554   -3.4095   -2.7091 C   0  0  0  0  0  0  0  0  0  0  0  0
    7.9007   -3.0960   -1.3588 O   0  0  0  0  0  0  0  0  0  0  0  0
    8.6008   -1.9314   -1.1419 C   0  0  0  0  0  0  0  0  0  0  0  0
    7.9304   -0.7321   -0.9044 C   0  0  0  0  0  0  0  0  0  0  0  0
    6.4817   -0.7062   -0.8889 C   0  0  0  0  0  0  0  0  0  0  0  0
    5.7390    0.0026   -0.0230 C   0  0  0  0  0  0  0  0  0  0  0  0
    4.2900    0.0021   -0.0232 C   0  0  0  0  0  0  0  0  0  0  0  0
    3.5788   -0.0126    1.1793 C   0  0  0  0  0  0  0  0  0  0  0  0
    2.1761   -0.0122    1.1874 C   0  0  0  0  0  0  0  0  0  0  0  0
    1.4280    0.0000    0.0000 C   0  0  0  0  0  0  0  0  0  0  0  0
    0.0000    0.0000    0.0000 N   0  0  0  0  0  0  0  0  0  0  0  0
   -0.9770    0.0000    1.3843 S   0  0  0  0  0  6  0  0  0  0  0  0
   -0.6863   -1.6413    2.0084 C   0  0  0  0  0  0  0  0  0  0  0  0
   -0.5058    0.9592    2.3628 O   0  0  0  0  0  0  0  0  0  0  0  0
   -2.3619    0.0324    0.9487 O   0  0  0  0  0  0  0  0  0  0  0  0
    2.1775   -0.0000   -1.1922 C   0  0  0  0  0  0  0  0  0  0  0  0
    3.5788   -0.0031   -1.2225 C   0  0  0  0  0  0  0  0  0  0  0  0
    8.6695    0.4393   -0.6902 C   0  0  0  0  0  0  0  0  0  0  0  0
   10.0772    0.4788   -0.6921 C   0  0  0  0  0  0  0  0  0  0  0  0
   10.7187   -0.7490   -0.9171 C   0  0  0  0  0  0  0  0  0  0  0  0
    9.9979   -1.9322   -1.1364 C   0  0  0  0  0  0  0  0  0  0  0  0
   10.7469   -3.1960   -1.3598 C   0  0  0  0  0  0  0  0  0  0  0  0
   10.3867   -3.7770   -2.7444 C   0  0  0  0  0  0  0  0  0  0  0  0
   10.3730   -4.2205   -0.2668 C   0  0  0  0  0  0  0  0  0  0  0  0
   12.2828   -3.0273   -1.3222 C   0  0  0  0  0  0  0  0  0  0  0  0
   10.7871    1.6595   -0.4727 N   0  0  0  0  0  0  0  0  0  0  0  0
   10.5441    2.6521   -1.3883 C   0  0  0  0  0  0  0  0  0  0  0  0
   11.1437    3.8444   -1.3204 C   0  0  0  0  0  0  0  0  0  0  0  0
   12.1032    4.1135   -0.2255 C   0  0  0  0  0  0  0  0  0  0  0  0
   12.6687    5.1994   -0.1383 O   0  0  0  0  0  0  0  0  0  0  0  0
   12.2918    3.0586    0.6564 N   0  0  0  0  0  0  0  0  0  0  0  0
   11.6704    1.8030    0.5979 C   0  0  0  0  0  0  0  0  0  0  0  0
   11.9047    0.9264    1.4324 O   0  0  0  0  0  0  0  0  0  0  0  0
    7.0075   -4.3555   -2.7140 H   0  0  0  0  0  0  0  0  0  0  0  0
    8.4608   -3.5198   -3.3140 H   0  0  0  0  0  0  0  0  0  0  0  0
    6.9155   -2.6258   -3.1264 H   0  0  0  0  0  0  0  0  0  0  0  0
    5.9984   -1.3120   -1.6526 H   0  0  0  0  0  0  0  0  0  0  0  0
    6.2002    0.6140    0.7477 H   0  0  0  0  0  0  0  0  0  0  0  0
    4.1084   -0.0281    2.1291 H   0  0  0  0  0  0  0  0  0  0  0  0
    1.6871   -0.0294    2.1583 H   0  0  0  0  0  0  0  0  0  0  0  0
   -0.4363   -0.2635   -0.8931 H   0  0  0  0  0  0  0  0  0  0  0  0
   -0.9258   -2.3653    1.2273 H   0  0  0  0  0  0  0  0  0  0  0  0
   -1.3484   -1.7937    2.8641 H   0  0  0  0  0  0  0  0  0  0  0  0
    0.3508   -1.7399    2.3296 H   0  0  0  0  0  0  0  0  0  0  0  0
    1.6389    0.0025   -2.1391 H   0  0  0  0  0  0  0  0  0  0  0  0
    4.1138   -0.0038   -2.1694 H   0  0  0  0  0  0  0  0  0  0  0  0
    8.1286    1.3680   -0.5128 H   0  0  0  0  0  0  0  0  0  0  0  0
   11.8034   -0.8228   -0.9207 H   0  0  0  0  0  0  0  0  0  0  0  0
   10.9541   -4.6926   -2.9488 H   0  0  0  0  0  0  0  0  0  0  0  0
   10.6109   -3.0604   -3.5434 H   0  0  0  0  0  0  0  0  0  0  0  0
    9.3249   -4.0350   -2.8226 H   0  0  0  0  0  0  0  0  0  0  0  0
   10.9373   -5.1524   -0.3888 H   0  0  0  0  0  0  0  0  0  0  0  0
    9.3099   -4.4840   -0.2922 H   0  0  0  0  0  0  0  0  0  0  0  0
   10.5906   -3.8273    0.7334 H   0  0  0  0  0  0  0  0  0  0  0  0
   12.7898   -3.9842   -1.4951 H   0  0  0  0  0  0  0  0  0  0  0  0
   12.6242   -2.6538   -0.3498 H   0  0  0  0  0  0  0  0  0  0  0  0
   12.6314   -2.3335   -2.0962 H   0  0  0  0  0  0  0  0  0  0  0  0
    9.8381    2.4424   -2.1869 H   0  0  0  0  0  0  0  0  0  0  0  0
   10.9496    4.6257   -2.0449 H   0  0  0  0  0  0  0  0  0  0  0  0
   12.9445    3.2095    1.4205 H   0  0  0  0  0  0  0  0  0  0  0  0
  1  2  1  0
  2  3  1  0
  3  4  2  0
  4  5  1  0
  5  6  2  0
  6  7  1  0
  7  8  2  0
  8  9  1  0
  9 10  2  0
 10 11  1  0
 11 12  1  0
 12 13  1  0
 12 14  2  0
 12 15  2  0
 10 16  1  0
 16 17  2  0
  4 18  1  0
 18 19  2  0
 19 20  1  0
 20 21  2  0
 21 22  1  0
 22 23  1  0
 22 24  1  0
 22 25  1  0
 19 26  1  0
 26 27  1  0
 27 28  2  0
 28 29  1  0
 29 30  2  0
 29 31  1  0
 31 32  1  0
 32 33  2  0
 21  3  1  0
 32 26  1  0
 17  7  1  0
  1 34  1  0
  1 35  1  0
  1 36  1  0
  5 37  1  0
  6 38  1  0
  8 39  1  0
  9 40  1  0
 11 41  1  0
 13 42  1  0
 13 43  1  0
 13 44  1  0
 16 45  1  0
 17 46  1  0
 18 47  1  0
 20 48  1  0
 23 49  1  0
 23 50  1  0
 23 51  1  0
 24 52  1  0
 24 53  1  0
 24 54  1  0
 25 55  1  0
 25 56  1  0
 25 57  1  0
 27 58  1  0
 28 59  1  0
 31 60  1  0
M  END
>  <_MoleculeID>  (270) 
smi29

>  <_InputIndex>  (270) 
29

>  <_InputSMILES>  (270) 
COc1c(\C=C\c2ccc(NS(C)(=O)=O)cc2)cc(cc1C(C)(C)C)-n1ccc(=O)[nH]c1=O

>  <_InputInChIKey>  (270) 
XMZSTQYSBYEENY-RMKNXTFCSA-N

>  <_SMILES>  (270) 
COc1c(/C=C/c2ccc(NS(C)(=O)=O)cc2)cc(-n2ccc(=O)[nH]c2=O)cc1C(C)(C)C

>  <_InChIKey>  (270) 
XMZSTQYSBYEENY-RMKNXTFCSA-N

$$$$
smi29_conf6
     RDKit          3D

 60 62  0  0  0  0  0  0  0  0999 V2000
    7.5525    4.0145   -1.6264 C   0  0  0  0  0  0  0  0  0  0  0  0
    7.8983    2.6886   -2.0303 O   0  0  0  0  0  0  0  0  0  0  0  0
    8.5992    1.9189   -1.1305 C   0  0  0  0  0  0  0  0  0  0  0  0
    7.9297    1.1132   -0.2103 C   0  0  0  0  0  0  0  0  0  0  0  0
    6.4810    1.0860   -0.1950 C   0  0  0  0  0  0  0  0  0  0  0  0
    5.7390   -0.0187   -0.0137 C   0  0  0  0  0  0  0  0  0  0  0  0
    4.2900   -0.0191   -0.0134 C   0  0  0  0  0  0  0  0  0  0  0  0
    3.5788    1.0150    0.6006 C   0  0  0  0  0  0  0  0  0  0  0  0
    2.1761    1.0222    0.6042 C   0  0  0  0  0  0  0  0  0  0  0  0
    1.4280    0.0000    0.0000 C   0  0  0  0  0  0  0  0  0  0  0  0
    0.0000    0.0000    0.0000 N   0  0  0  0  0  0  0  0  0  0  0  0
   -0.9770    0.0000    1.3843 S   0  0  0  0  0  6  0  0  0  0  0  0
   -0.6863   -1.6413    2.0084 C   0  0  0  0  0  0  0  0  0  0  0  0
   -0.5058    0.9592    2.3628 O   0  0  0  0  0  0  0  0  0  0  0  0
   -2.3619    0.0324    0.9487 O   0  0  0  0  0  0  0  0  0  0  0  0
    2.1775   -1.0325   -0.5961 C   0  0  0  0  0  0  0  0  0  0  0  0
    3.5788   -1.0603   -0.6086 C   0  0  0  0  0  0  0  0  0  0  0  0
    8.6696    0.3424    0.6968 C   0  0  0  0  0  0  0  0  0  0  0  0
   10.0774    0.3250    0.7313 C   0  0  0  0  0  0  0  0  0  0  0  0
   10.7180    1.1341   -0.2198 C   0  0  0  0  0  0  0  0  0  0  0  0
    9.9964    1.9153   -1.1345 C   0  0  0  0  0  0  0  0  0  0  0  0
   10.7445    2.7411   -2.1176 C   0  0  0  0  0  0  0  0  0  0  0  0
   10.3835    4.2305   -1.9283 C   0  0  0  0  0  0  0  0  0  0  0  0
   10.3702    2.3066   -3.5511 C   0  0  0  0  0  0  0  0  0  0  0  0
   12.2804    2.6250   -1.9909 C   0  0  0  0  0  0  0  0  0  0  0  0
   10.7881   -0.4549    1.6438 N   0  0  0  0  0  0  0  0  0  0  0  0
   10.5409   -1.8020    1.5600 C   0  0  0  0  0  0  0  0  0  0  0  0
   11.1407   -2.6862    2.3626 C   0  0  0  0  0  0  0  0  0  0  0  0
   12.1050   -2.2073    3.3788 C   0  0  0  0  0  0  0  0  0  0  0  0
   12.6708   -2.9967    4.1294 O   0  0  0  0  0  0  0  0  0  0  0  0
   12.2977   -0.8330    3.3973 N   0  0  0  0  0  0  0  0  0  0  0  0
   11.6761    0.1063    2.5622 C   0  0  0  0  0  0  0  0  0  0  0  0
   11.9142    1.3122    2.6561 O   0  0  0  0  0  0  0  0  0  0  0  0
    7.0039    4.4916   -2.4430 H   0  0  0  0  0  0  0  0  0  0  0  0
    8.4576    4.5941   -1.4199 H   0  0  0  0  0  0  0  0  0  0  0  0
    6.9130    3.9838   -0.7388 H   0  0  0  0  0  0  0  0  0  0  0  0
    5.9971    2.0500   -0.3375 H   0  0  0  0  0  0  0  0  0  0  0  0
    6.2008   -0.9915    0.1302 H   0  0  0  0  0  0  0  0  0  0  0  0
    4.1084    1.8298    1.0888 H   0  0  0  0  0  0  0  0  0  0  0  0
    1.6871    1.8544    1.1046 H   0  0  0  0  0  0  0  0  0  0  0  0
   -0.4363   -0.2635   -0.8931 H   0  0  0  0  0  0  0  0  0  0  0  0
   -0.9258   -2.3653    1.2273 H   0  0  0  0  0  0  0  0  0  0  0  0
   -1.3484   -1.7937    2.8641 H   0  0  0  0  0  0  0  0  0  0  0  0
    0.3508   -1.7399    2.3296 H   0  0  0  0  0  0  0  0  0  0  0  0
    1.6389   -1.8512   -1.0717 H   0  0  0  0  0  0  0  0  0  0  0  0
    4.1138   -1.8806   -1.0814 H   0  0  0  0  0  0  0  0  0  0  0  0
    8.1293   -0.2759    1.4126 H   0  0  0  0  0  0  0  0  0  0  0  0
   11.8026    1.1748   -0.2823 H   0  0  0  0  0  0  0  0  0  0  0  0
   10.9502    4.8656   -2.6193 H   0  0  0  0  0  0  0  0  0  0  0  0
   10.6079    4.5643   -0.9083 H   0  0  0  0  0  0  0  0  0  0  0  0
    9.3215    4.4266   -2.1122 H   0  0  0  0  0  0  0  0  0  0  0  0
   10.9338    2.8785   -4.2975 H   0  0  0  0  0  0  0  0  0  0  0  0
    9.3069    2.4597   -3.7662 H   0  0  0  0  0  0  0  0  0  0  0  0
   10.5883    1.2439   -3.7109 H   0  0  0  0  0  0  0  0  0  0  0  0
   12.7868    3.2535   -2.7334 H   0  0  0  0  0  0  0  0  0  0  0  0
   12.6224    1.5963   -2.1539 H   0  0  0  0  0  0  0  0  0  0  0  0
   12.6293    2.9487   -1.0033 H   0  0  0  0  0  0  0  0  0  0  0  0
    9.8314   -2.1409    0.8104 H   0  0  0  0  0  0  0  0  0  0  0  0
   10.9432   -3.7489    2.2937 H   0  0  0  0  0  0  0  0  0  0  0  0
   12.9537   -0.4701    4.0833 H   0  0  0  0  0  0  0  0  0  0  0  0
  1  2  1  0
  2  3  1  0
  3  4  2  0
  4  5  1  0
  5  6  2  0
  6  7  1  0
  7  8  2  0
  8  9  1  0
  9 10  2  0
 10 11  1  0
 11 12  1  0
 12 13  1  0
 12 14  2  0
 12 15  2  0
 10 16  1  0
 16 17  2  0
  4 18  1  0
 18 19  2  0
 19 20  1  0
 20 21  2  0
 21 22  1  0
 22 23  1  0
 22 24  1  0
 22 25  1  0
 19 26  1  0
 26 27  1  0
 27 28  2  0
 28 29  1  0
 29 30  2  0
 29 31  1  0
 31 32  1  0
 32 33  2  0
 21  3  1  0
 32 26  1  0
 17  7  1  0
  1 34  1  0
  1 35  1  0
  1 36  1  0
  5 37  1  0
  6 38  1  0
  8 39  1  0
  9 40  1  0
 11 41  1  0
 13 42  1  0
 13 43  1  0
 13 44  1  0
 16 45  1  0
 17 46  1  0
 18 47  1  0
 20 48  1  0
 23 49  1  0
 23 50  1  0
 23 51  1  0
 24 52  1  0
 24 53  1  0
 24 54  1  0
 25 55  1  0
 25 56  1  0
 25 57  1  0
 27 58  1  0
 28 59  1  0
 31 60  1  0
M  END
>  <_MoleculeID>  (271) 
smi29

>  <_InputIndex>  (271) 
29

>  <_InputSMILES>  (271) 
COc1c(\C=C\c2ccc(NS(C)(=O)=O)cc2)cc(cc1C(C)(C)C)-n1ccc(=O)[nH]c1=O

>  <_InputInChIKey>  (271) 
XMZSTQYSBYEENY-RMKNXTFCSA-N

>  <_SMILES>  (271) 
COc1c(/C=C/c2ccc(NS(C)(=O)=O)cc2)cc(-n2ccc(=O)[nH]c2=O)cc1C(C)(C)C

>  <_InChIKey>  (271) 
XMZSTQYSBYEENY-RMKNXTFCSA-N

$$$$
smi29_conf7
     RDKit          3D

 60 62  0  0  0  0  0  0  0  0999 V2000
    7.5554   -4.0508    1.5982 C   0  0  0  0  0  0  0  0  0  0  0  0
    7.9007   -2.7247    2.0018 O   0  0  0  0  0  0  0  0  0  0  0  0
    8.6008   -1.9546    1.1017 C   0  0  0  0  0  0  0  0  0  0  0  0
    7.9304   -1.1493    0.1818 C   0  0  0  0  0  0  0  0  0  0  0  0
    6.4817   -1.1229    0.1672 C   0  0  0  0  0  0  0  0  0  0  0  0
    5.7390   -0.0187   -0.0137 C   0  0  0  0  0  0  0  0  0  0  0  0
    4.2900   -0.0191   -0.0134 C   0  0  0  0  0  0  0  0  0  0  0  0
    3.5788    1.0150    0.6006 C   0  0  0  0  0  0  0  0  0  0  0  0
    2.1761    1.0222    0.6042 C   0  0  0  0  0  0  0  0  0  0  0  0
    1.4280    0.0000    0.0000 C   0  0  0  0  0  0  0  0  0  0  0  0
    0.0000    0.0000    0.0000 N   0  0  0  0  0  0  0  0  0  0  0  0
   -0.9770    0.0000    1.3843 S   0  0  0  0  0  6  0  0  0  0  0  0
   -0.6863   -1.6413    2.0084 C   0  0  0  0  0  0  0  0  0  0  0  0
   -0.5058    0.9592    2.3628 O   0  0  0  0  0  0  0  0  0  0  0  0
   -2.3619    0.0324    0.9487 O   0  0  0  0  0  0  0  0  0  0  0  0
    2.1775   -1.0325   -0.5961 C   0  0  0  0  0  0  0  0  0  0  0  0
    3.5788   -1.0603   -0.6086 C   0  0  0  0  0  0  0  0  0  0  0  0
    8.6695   -0.3781   -0.7255 C   0  0  0  0  0  0  0  0  0  0  0  0
   10.0772   -0.3599   -0.7607 C   0  0  0  0  0  0  0  0  0  0  0  0
   10.7187   -1.1687    0.1901 C   0  0  0  0  0  0  0  0  0  0  0  0
    9.9979   -1.9502    1.1051 C   0  0  0  0  0  0  0  0  0  0  0  0
   10.7469   -2.7757    2.0879 C   0  0  0  0  0  0  0  0  0  0  0  0
   10.3867   -4.2653    1.8988 C   0  0  0  0  0  0  0  0  0  0  0  0
   10.3730   -2.3413    3.5216 C   0  0  0  0  0  0  0  0  0  0  0  0
   12.2828   -2.6587    1.9606 C   0  0  0  0  0  0  0  0  0  0  0  0
   10.7871    0.4204   -1.6735 N   0  0  0  0  0  0  0  0  0  0  0  0
   11.6127    1.3575   -1.1051 C   0  0  0  0  0  0  0  0  0  0  0  0
   12.3616    2.1848   -1.8403 C   0  0  0  0  0  0  0  0  0  0  0  0
   12.3061    2.0957   -3.3171 C   0  0  0  0  0  0  0  0  0  0  0  0
   12.9829    2.8427   -4.0175 O   0  0  0  0  0  0  0  0  0  0  0  0
   11.4477    1.1231   -3.8104 N   0  0  0  0  0  0  0  0  0  0  0  0
   10.6564    0.2486   -3.0520 C   0  0  0  0  0  0  0  0  0  0  0  0
    9.9219   -0.5855   -3.5852 O   0  0  0  0  0  0  0  0  0  0  0  0
    7.0075   -4.5282    2.4150 H   0  0  0  0  0  0  0  0  0  0  0  0
    8.4608   -4.6299    1.3912 H   0  0  0  0  0  0  0  0  0  0  0  0
    6.9155   -4.0204    0.7108 H   0  0  0  0  0  0  0  0  0  0  0  0
    5.9984   -2.0872    0.3099 H   0  0  0  0  0  0  0  0  0  0  0  0
    6.2002    0.9545   -0.1579 H   0  0  0  0  0  0  0  0  0  0  0  0
    4.1084    1.8298    1.0888 H   0  0  0  0  0  0  0  0  0  0  0  0
    1.6871    1.8544    1.1046 H   0  0  0  0  0  0  0  0  0  0  0  0
   -0.4363   -0.2635   -0.8931 H   0  0  0  0  0  0  0  0  0  0  0  0
   -0.9258   -2.3653    1.2273 H   0  0  0  0  0  0  0  0  0  0  0  0
   -1.3484   -1.7937    2.8641 H   0  0  0  0  0  0  0  0  0  0  0  0
    0.3508   -1.7399    2.3296 H   0  0  0  0  0  0  0  0  0  0  0  0
    1.6389   -1.8512   -1.0717 H   0  0  0  0  0  0  0  0  0  0  0  0
    4.1138   -1.8806   -1.0814 H   0  0  0  0  0  0  0  0  0  0  0  0
    8.1286    0.2399   -1.4411 H   0  0  0  0  0  0  0  0  0  0  0  0
   11.8034   -1.2088    0.2521 H   0  0  0  0  0  0  0  0  0  0  0  0
   10.9541   -4.9000    2.5895 H   0  0  0  0  0  0  0  0  0  0  0  0
   10.6109   -4.5989    0.8787 H   0  0  0  0  0  0  0  0  0  0  0  0
    9.3249   -4.4620    2.0831 H   0  0  0  0  0  0  0  0  0  0  0  0
   10.9373   -2.9130    4.2677 H   0  0  0  0  0  0  0  0  0  0  0  0
    9.3099   -2.4950    3.7372 H   0  0  0  0  0  0  0  0  0  0  0  0
   10.5906   -1.2785    3.6813 H   0  0  0  0  0  0  0  0  0  0  0  0
   12.7898   -3.2869    2.7029 H   0  0  0  0  0  0  0  0  0  0  0  0
   12.6242   -1.6298    2.1234 H   0  0  0  0  0  0  0  0  0  0  0  0
   12.6314   -2.9822    0.9728 H   0  0  0  0  0  0  0  0  0  0  0  0
   11.6446    1.4130   -0.0206 H   0  0  0  0  0  0  0  0  0  0  0  0
   13.0122    2.9233   -1.3883 H   0  0  0  0  0  0  0  0  0  0  0  0
   11.3854    1.0349   -4.8208 H   0  0  0  0  0  0  0  0  0  0  0  0
  1  2  1  0
  2  3  1  0
  3  4  2  0
  4  5  1  0
  5  6  2  0
  6  7  1  0
  7  8  2  0
  8  9  1  0
  9 10  2  0
 10 11  1  0
 11 12  1  0
 12 13  1  0
 12 14  2  0
 12 15  2  0
 10 16  1  0
 16 17  2  0
  4 18  1  0
 18 19  2  0
 19 20  1  0
 20 21  2  0
 21 22  1  0
 22 23  1  0
 22 24  1  0
 22 25  1  0
 19 26  1  0
 26 27  1  0
 27 28  2  0
 28 29  1  0
 29 30  2  0
 29 31  1  0
 31 32  1  0
 32 33  2  0
 21  3  1  0
 32 26  1  0
 17  7  1  0
  1 34  1  0
  1 35  1  0
  1 36  1  0
  5 37  1  0
  6 38  1  0
  8 39  1  0
  9 40  1  0
 11 41  1  0
 13 42  1  0
 13 43  1  0
 13 44  1  0
 16 45  1  0
 17 46  1  0
 18 47  1  0
 20 48  1  0
 23 49  1  0
 23 50  1  0
 23 51  1  0
 24 52  1  0
 24 53  1  0
 24 54  1  0
 25 55  1  0
 25 56  1  0
 25 57  1  0
 27 58  1  0
 28 59  1  0
 31 60  1  0
M  END
>  <_MoleculeID>  (272) 
smi29

>  <_InputIndex>  (272) 
29

>  <_InputSMILES>  (272) 
COc1c(\C=C\c2ccc(NS(C)(=O)=O)cc2)cc(cc1C(C)(C)C)-n1ccc(=O)[nH]c1=O

>  <_InputInChIKey>  (272) 
XMZSTQYSBYEENY-RMKNXTFCSA-N

>  <_SMILES>  (272) 
COc1c(/C=C/c2ccc(NS(C)(=O)=O)cc2)cc(-n2ccc(=O)[nH]c2=O)cc1C(C)(C)C

>  <_InChIKey>  (272) 
XMZSTQYSBYEENY-RMKNXTFCSA-N

$$$$
smi29_conf8
     RDKit          3D

 60 62  0  0  0  0  0  0  0  0999 V2000
    7.6316   -2.9144    0.2583 C   0  0  0  0  0  0  0  0  0  0  0  0
    7.9736   -1.5844    0.6518 O   0  0  0  0  0  0  0  0  0  0  0  0
    8.6371   -0.8062   -0.2688 C   0  0  0  0  0  0  0  0  0  0  0  0
    7.9299   -0.0087   -1.1677 C   0  0  0  0  0  0  0  0  0  0  0  0
    6.4812    0.0009   -1.1385 C   0  0  0  0  0  0  0  0  0  0  0  0
    5.7390   -0.0128   -0.0193 C   0  0  0  0  0  0  0  0  0  0  0  0
    4.2900   -0.0133   -0.0191 C   0  0  0  0  0  0  0  0  0  0  0  0
    3.5788    0.7484    0.9115 C   0  0  0  0  0  0  0  0  0  0  0  0
    2.1761    0.7539    0.9174 C   0  0  0  0  0  0  0  0  0  0  0  0
    1.4280    0.0000    0.0000 C   0  0  0  0  0  0  0  0  0  0  0  0
    0.0000    0.0000    0.0000 N   0  0  0  0  0  0  0  0  0  0  0  0
   -0.9770    0.0000    1.3843 S   0  0  0  0  0  6  0  0  0  0  0  0
   -0.6863   -1.6413    2.0084 C   0  0  0  0  0  0  0  0  0  0  0  0
   -0.5058    0.9592    2.3628 O   0  0  0  0  0  0  0  0  0  0  0  0
   -2.3619    0.0324    0.9487 O   0  0  0  0  0  0  0  0  0  0  0  0
    2.1775   -0.7664   -0.9133 C   0  0  0  0  0  0  0  0  0  0  0  0
    3.5788   -0.7882   -0.9345 C   0  0  0  0  0  0  0  0  0  0  0  0
    8.6323    0.7711   -2.0966 C   0  0  0  0  0  0  0  0  0  0  0  0
   10.0380    0.8056   -2.1744 C   0  0  0  0  0  0  0  0  0  0  0  0
   10.7173    0.0043   -1.2437 C   0  0  0  0  0  0  0  0  0  0  0  0
   10.0336   -0.7856   -0.3076 C   0  0  0  0  0  0  0  0  0  0  0  0
   10.8215   -1.6024    0.6518 C   0  0  0  0  0  0  0  0  0  0  0  0
   10.4730   -3.0960    0.4730 C   0  0  0  0  0  0  0  0  0  0  0  0
   10.4861   -1.1724    2.0963 C   0  0  0  0  0  0  0  0  0  0  0  0
   12.3513   -1.4676    0.4781 C   0  0  0  0  0  0  0  0  0  0  0  0
   10.7109    1.5941   -3.1079 N   0  0  0  0  0  0  0  0  0  0  0  0
   11.5239    0.8972   -3.9658 C   0  0  0  0  0  0  0  0  0  0  0  0
   12.2380    1.5036   -4.9188 C   0  0  0  0  0  0  0  0  0  0  0  0
   12.1564    2.9750   -5.0621 C   0  0  0  0  0  0  0  0  0  0  0  0
   12.8010    3.5586   -5.9284 O   0  0  0  0  0  0  0  0  0  0  0  0
   11.3128    3.6028   -4.1563 N   0  0  0  0  0  0  0  0  0  0  0  0
   10.5580    2.9803   -3.1520 C   0  0  0  0  0  0  0  0  0  0  0  0
    9.8342    3.6276   -2.3925 O   0  0  0  0  0  0  0  0  0  0  0  0
    7.1142   -3.3981    1.0911 H   0  0  0  0  0  0  0  0  0  0  0  0
    8.5369   -3.4830    0.0238 H   0  0  0  0  0  0  0  0  0  0  0  0
    6.9648   -2.8914   -0.6093 H   0  0  0  0  0  0  0  0  0  0  0  0
    5.9975    0.0276   -2.1127 H   0  0  0  0  0  0  0  0  0  0  0  0
    6.2006   -0.0398    0.9639 H   0  0  0  0  0  0  0  0  0  0  0  0
    4.1084    1.3470    1.6490 H   0  0  0  0  0  0  0  0  0  0  0  0
    1.6871    1.3648    1.6722 H   0  0  0  0  0  0  0  0  0  0  0  0
   -0.4363   -0.2635   -0.8931 H   0  0  0  0  0  0  0  0  0  0  0  0
   -0.9258   -2.3653    1.2273 H   0  0  0  0  0  0  0  0  0  0  0  0
   -1.3484   -1.7937    2.8641 H   0  0  0  0  0  0  0  0  0  0  0  0
    0.3508   -1.7399    2.3296 H   0  0  0  0  0  0  0  0  0  0  0  0
    1.6389   -1.3731   -1.6402 H   0  0  0  0  0  0  0  0  0  0  0  0
    4.1138   -1.3974   -1.6594 H   0  0  0  0  0  0  0  0  0  0  0  0
    8.0628    1.3828   -2.7953 H   0  0  0  0  0  0  0  0  0  0  0  0
   11.8037   -0.0233   -1.2145 H   0  0  0  0  0  0  0  0  0  0  0  0
   11.0683   -3.7242    1.1460 H   0  0  0  0  0  0  0  0  0  0  0  0
   10.6700   -3.4270   -0.5535 H   0  0  0  0  0  0  0  0  0  0  0  0
    9.4196   -3.3050    0.6893 H   0  0  0  0  0  0  0  0  0  0  0  0
   11.0792   -1.7375    2.8247 H   0  0  0  0  0  0  0  0  0  0  0  0
    9.4319   -1.3385    2.3438 H   0  0  0  0  0  0  0  0  0  0  0  0
   10.6961   -0.1072    2.2497 H   0  0  0  0  0  0  0  0  0  0  0  0
   12.8878   -2.0899    1.2045 H   0  0  0  0  0  0  0  0  0  0  0  0
   12.6856   -0.4348    0.6309 H   0  0  0  0  0  0  0  0  0  0  0  0
   12.6736   -1.7870   -0.5199 H   0  0  0  0  0  0  0  0  0  0  0  0
   11.5752   -0.1818   -3.8506 H   0  0  0  0  0  0  0  0  0  0  0  0
   12.8788    0.9504   -5.5944 H   0  0  0  0  0  0  0  0  0  0  0  0
   11.2334    4.6134   -4.2268 H   0  0  0  0  0  0  0  0  0  0  0  0
  1  2  1  0
  2  3  1  0
  3  4  2  0
  4  5  1  0
  5  6  2  0
  6  7  1  0
  7  8  2  0
  8  9  1  0
  9 10  2  0
 10 11  1  0
 11 12  1  0
 12 13  1  0
 12 14  2  0
 12 15  2  0
 10 16  1  0
 16 17  2  0
  4 18  1  0
 18 19  2  0
 19 20  1  0
 20 21  2  0
 21 22  1  0
 22 23  1  0
 22 24  1  0
 22 25  1  0
 19 26  1  0
 26 27  1  0
 27 28  2  0
 28 29  1  0
 29 30  2  0
 29 31  1  0
 31 32  1  0
 32 33  2  0
 21  3  1  0
 32 26  1  0
 17  7  1  0
  1 34  1  0
  1 35  1  0
  1 36  1  0
  5 37  1  0
  6 38  1  0
  8 39  1  0
  9 40  1  0
 11 41  1  0
 13 42  1  0
 13 43  1  0
 13 44  1  0
 16 45  1  0
 17 46  1  0
 18 47  1  0
 20 48  1  0
 23 49  1  0
 23 50  1  0
 23 51  1  0
 24 52  1  0
 24 53  1  0
 24 54  1  0
 25 55  1  0
 25 56  1  0
 25 57  1  0
 27 58  1  0
 28 59  1  0
 31 60  1  0
M  END
>  <_MoleculeID>  (273) 
smi29

>  <_InputIndex>  (273) 
29

>  <_InputSMILES>  (273) 
COc1c(\C=C\c2ccc(NS(C)(=O)=O)cc2)cc(cc1C(C)(C)C)-n1ccc(=O)[nH]c1=O

>  <_InputInChIKey>  (273) 
XMZSTQYSBYEENY-RMKNXTFCSA-N

>  <_SMILES>  (273) 
COc1c(/C=C/c2ccc(NS(C)(=O)=O)cc2)cc(-n2ccc(=O)[nH]c2=O)cc1C(C)(C)C

>  <_InChIKey>  (273) 
XMZSTQYSBYEENY-RMKNXTFCSA-N

$$$$
smi29_conf9
     RDKit          3D

 60 62  0  0  0  0  0  0  0  0999 V2000
    7.6296    2.4050    1.6300 C   0  0  0  0  0  0  0  0  0  0  0  0
    7.9724    1.6393    0.4737 O   0  0  0  0  0  0  0  0  0  0  0  0
    8.6366    0.4519    0.6788 C   0  0  0  0  0  0  0  0  0  0  0  0
    7.9302   -0.7373    0.8546 C   0  0  0  0  0  0  0  0  0  0  0  0
    6.4815   -0.7269    0.8257 C   0  0  0  0  0  0  0  0  0  0  0  0
    5.7390    0.0026   -0.0230 C   0  0  0  0  0  0  0  0  0  0  0  0
    4.2900    0.0021   -0.0232 C   0  0  0  0  0  0  0  0  0  0  0  0
    3.5788   -0.0126    1.1793 C   0  0  0  0  0  0  0  0  0  0  0  0
    2.1761   -0.0122    1.1874 C   0  0  0  0  0  0  0  0  0  0  0  0
    1.4280    0.0000    0.0000 C   0  0  0  0  0  0  0  0  0  0  0  0
    0.0000    0.0000    0.0000 N   0  0  0  0  0  0  0  0  0  0  0  0
   -0.9770    0.0000    1.3843 S   0  0  0  0  0  6  0  0  0  0  0  0
   -0.6863   -1.6413    2.0084 C   0  0  0  0  0  0  0  0  0  0  0  0
   -0.5058    0.9592    2.3628 O   0  0  0  0  0  0  0  0  0  0  0  0
   -2.3619    0.0324    0.9487 O   0  0  0  0  0  0  0  0  0  0  0  0
    2.1775   -0.0000   -1.1922 C   0  0  0  0  0  0  0  0  0  0  0  0
    3.5788   -0.0031   -1.2225 C   0  0  0  0  0  0  0  0  0  0  0  0
    8.6332   -1.9313    1.0652 C   0  0  0  0  0  0  0  0  0  0  0  0
   10.0390   -2.0068    1.1029 C   0  0  0  0  0  0  0  0  0  0  0  0
   10.7176   -0.7943    0.9053 C   0  0  0  0  0  0  0  0  0  0  0  0
   10.0331    0.4121    0.6957 C   0  0  0  0  0  0  0  0  0  0  0  0
   10.8203    1.6549    0.4860 C   0  0  0  0  0  0  0  0  0  0  0  0
   10.4708    2.6840    1.5829 C   0  0  0  0  0  0  0  0  0  0  0  0
   10.4848    2.2538   -0.8970 C   0  0  0  0  0  0  0  0  0  0  0  0
   12.3502    1.4410    0.5328 C   0  0  0  0  0  0  0  0  0  0  0  0
   10.7126   -3.2105    1.3114 N   0  0  0  0  0  0  0  0  0  0  0  0
   10.4334   -3.8230    2.5070 C   0  0  0  0  0  0  0  0  0  0  0  0
   10.9956   -4.9829    2.8600 C   0  0  0  0  0  0  0  0  0  0  0  0
   11.9522   -5.6365    1.9383 C   0  0  0  0  0  0  0  0  0  0  0  0
   12.4837   -6.7020    2.2363 O   0  0  0  0  0  0  0  0  0  0  0  0
   12.1788   -4.9523    0.7523 N   0  0  0  0  0  0  0  0  0  0  0  0
   11.5968   -3.7358    0.3685 C   0  0  0  0  0  0  0  0  0  0  0  0
   11.8632   -3.2041   -0.7114 O   0  0  0  0  0  0  0  0  0  0  0  0
    7.1117    3.3105    1.3028 H   0  0  0  0  0  0  0  0  0  0  0  0
    8.5346    2.6904    2.1753 H   0  0  0  0  0  0  0  0  0  0  0  0
    6.9630    1.8292    2.2796 H   0  0  0  0  0  0  0  0  0  0  0  0
    5.9980   -1.3739    1.5547 H   0  0  0  0  0  0  0  0  0  0  0  0
    6.2004    0.6555   -0.7587 H   0  0  0  0  0  0  0  0  0  0  0  0
    4.1084   -0.0281    2.1291 H   0  0  0  0  0  0  0  0  0  0  0  0
    1.6871   -0.0294    2.1583 H   0  0  0  0  0  0  0  0  0  0  0  0
   -0.4363   -0.2635   -0.8931 H   0  0  0  0  0  0  0  0  0  0  0  0
   -0.9258   -2.3653    1.2273 H   0  0  0  0  0  0  0  0  0  0  0  0
   -1.3484   -1.7937    2.8641 H   0  0  0  0  0  0  0  0  0  0  0  0
    0.3508   -1.7399    2.3296 H   0  0  0  0  0  0  0  0  0  0  0  0
    1.6389    0.0025   -2.1391 H   0  0  0  0  0  0  0  0  0  0  0  0
    4.1138   -0.0038   -2.1694 H   0  0  0  0  0  0  0  0  0  0  0  0
    8.0644   -2.8494    1.2070 H   0  0  0  0  0  0  0  0  0  0  0  0
   11.8040   -0.7537    0.9009 H   0  0  0  0  0  0  0  0  0  0  0  0
   11.0655    3.5982    1.4713 H   0  0  0  0  0  0  0  0  0  0  0  0
   10.6678    2.2778    2.5821 H   0  0  0  0  0  0  0  0  0  0  0  0
    9.4172    2.9825    1.5513 H   0  0  0  0  0  0  0  0  0  0  0  0
   11.0775    3.1554   -1.0917 H   0  0  0  0  0  0  0  0  0  0  0  0
    9.4304    2.5395   -0.9802 H   0  0  0  0  0  0  0  0  0  0  0  0
   10.6955    1.5366   -1.6992 H   0  0  0  0  0  0  0  0  0  0  0  0
   12.8861    2.3850    0.3765 H   0  0  0  0  0  0  0  0  0  0  0  0
   12.6851    0.7483   -0.2480 H   0  0  0  0  0  0  0  0  0  0  0  0
   12.6725    1.0444    1.5027 H   0  0  0  0  0  0  0  0  0  0  0  0
    9.7299   -3.3336    3.1746 H   0  0  0  0  0  0  0  0  0  0  0  0
   10.7729   -5.4637    3.8046 H   0  0  0  0  0  0  0  0  0  0  0  0
   12.8307   -5.3734    0.0962 H   0  0  0  0  0  0  0  0  0  0  0  0
  1  2  1  0
  2  3  1  0
  3  4  2  0
  4  5  1  0
  5  6  2  0
  6  7  1  0
  7  8  2  0
  8  9  1  0
  9 10  2  0
 10 11  1  0
 11 12  1  0
 12 13  1  0
 12 14  2  0
 12 15  2  0
 10 16  1  0
 16 17  2  0
  4 18  1  0
 18 19  2  0
 19 20  1  0
 20 21  2  0
 21 22  1  0
 22 23  1  0
 22 24  1  0
 22 25  1  0
 19 26  1  0
 26 27  1  0
 27 28  2  0
 28 29  1  0
 29 30  2  0
 29 31  1  0
 31 32  1  0
 32 33  2  0
 21  3  1  0
 32 26  1  0
 17  7  1  0
  1 34  1  0
  1 35  1  0
  1 36  1  0
  5 37  1  0
  6 38  1  0
  8 39  1  0
  9 40  1  0
 11 41  1  0
 13 42  1  0
 13 43  1  0
 13 44  1  0
 16 45  1  0
 17 46  1  0
 18 47  1  0
 20 48  1  0
 23 49  1  0
 23 50  1  0
 23 51  1  0
 24 52  1  0
 24 53  1  0
 24 54  1  0
 25 55  1  0
 25 56  1  0
 25 57  1  0
 27 58  1  0
 28 59  1  0
 31 60  1  0
M  END
>  <_MoleculeID>  (274) 
smi29

>  <_InputIndex>  (274) 
29

>  <_InputSMILES>  (274) 
COc1c(\C=C\c2ccc(NS(C)(=O)=O)cc2)cc(cc1C(C)(C)C)-n1ccc(=O)[nH]c1=O

>  <_InputInChIKey>  (274) 
XMZSTQYSBYEENY-RMKNXTFCSA-N

>  <_SMILES>  (274) 
COc1c(/C=C/c2ccc(NS(C)(=O)=O)cc2)cc(-n2ccc(=O)[nH]c2=O)cc1C(C)(C)C

>  <_InChIKey>  (274) 
XMZSTQYSBYEENY-RMKNXTFCSA-N

$$$$
smi30_conf0
     RDKit          3D

 47 50  0  0  0  0  0  0  0  0999 V2000
   13.4366    4.6574   -2.6099 C   0  0  0  0  0  0  0  0  0  0  0  0
   13.9332    3.7183   -1.5180 C   0  0  2  0  0  0  0  0  0  0  0  0
   15.4513    3.5347   -1.5744 C   0  0  0  0  0  0  0  0  0  0  0  0
   15.7003    2.0994   -1.1237 C   0  0  0  0  0  0  0  0  0  0  0  0
   14.3230    1.5318   -0.8241 C   0  0  0  0  0  0  0  0  0  0  0  0
   13.4349    2.3432   -1.6603 N   0  0  0  0  0  0  0  0  0  0  0  0
   12.0474    2.1913   -1.2641 C   0  0  0  0  0  0  0  0  0  0  0  0
   11.4282    0.9075   -1.8193 C   0  0  0  0  0  0  0  0  0  0  0  0
   10.0203    0.7272   -1.4331 C   0  0  0  0  0  0  0  0  0  0  0  0
    8.8133    1.1190   -1.9973 C   0  0  0  0  0  0  0  0  0  0  0  0
    7.7987    0.6081   -1.1190 C   0  0  0  0  0  0  0  0  0  0  0  0
    6.3898    0.6207   -1.0892 C   0  0  0  0  0  0  0  0  0  0  0  0
    5.7220    0.0023   -0.0230 C   0  0  0  0  0  0  0  0  0  0  0  0
    6.4411   -0.6068    1.0118 C   0  0  0  0  0  0  0  0  0  0  0  0
    7.8394   -0.6521    0.9966 C   0  0  0  0  0  0  0  0  0  0  0  0
    8.4663   -0.0263   -0.0799 C   0  0  0  0  0  0  0  0  0  0  0  0
    9.8080    0.0484   -0.2705 O   0  0  0  0  0  0  0  0  0  0  0  0
    4.2860    0.0019   -0.0232 C   0  0  0  0  0  0  0  0  0  0  0  0
    3.5748   -0.0006    1.1794 C   0  0  0  0  0  0  0  0  0  0  0  0
    2.1721   -0.0000    1.1875 C   0  0  0  0  0  0  0  0  0  0  0  0
    1.4240   -0.0000    0.0000 C   0  0  0  0  0  0  0  0  0  0  0  0
    2.1735   -0.0122   -1.1922 C   0  0  0  0  0  0  0  0  0  0  0  0
    3.5748   -0.0156   -1.2224 C   0  0  0  0  0  0  0  0  0  0  0  0
    0.0000    0.0000   -0.0000 C   0  0  0  0  0  0  0  0  0  0  0  0
   -1.1606    0.0022   -0.0032 N   0  0  0  0  0  0  0  0  0  0  0  0
   13.9284    5.6328   -2.5287 H   0  0  0  0  0  0  0  0  0  0  0  0
   12.3573    4.8221   -2.5323 H   0  0  0  0  0  0  0  0  0  0  0  0
   13.6461    4.2589   -3.6088 H   0  0  0  0  0  0  0  0  0  0  0  0
   13.6647    4.1283   -0.5345 H   0  0  0  0  0  0  0  0  0  0  0  0
   15.9591    4.2498   -0.9182 H   0  0  0  0  0  0  0  0  0  0  0  0
   15.8477    3.6746   -2.5872 H   0  0  0  0  0  0  0  0  0  0  0  0
   16.3537    2.0563   -0.2465 H   0  0  0  0  0  0  0  0  0  0  0  0
   16.1841    1.5370   -1.9309 H   0  0  0  0  0  0  0  0  0  0  0  0
   14.0977    1.6537    0.2434 H   0  0  0  0  0  0  0  0  0  0  0  0
   14.2638    0.4673   -1.0726 H   0  0  0  0  0  0  0  0  0  0  0  0
   11.5135    3.0575   -1.6691 H   0  0  0  0  0  0  0  0  0  0  0  0
   11.9731    2.2292   -0.1719 H   0  0  0  0  0  0  0  0  0  0  0  0
   12.0153    0.0383   -1.4960 H   0  0  0  0  0  0  0  0  0  0  0  0
   11.4887    0.9216   -2.9150 H   0  0  0  0  0  0  0  0  0  0  0  0
    8.6800    1.6751   -2.9140 H   0  0  0  0  0  0  0  0  0  0  0  0
    5.8159    1.0980   -1.8781 H   0  0  0  0  0  0  0  0  0  0  0  0
    5.9018   -1.0770    1.8305 H   0  0  0  0  0  0  0  0  0  0  0  0
    8.4083   -1.1392    1.7803 H   0  0  0  0  0  0  0  0  0  0  0  0
    4.1044   -0.0063    2.1292 H   0  0  0  0  0  0  0  0  0  0  0  0
    1.6831   -0.0073    2.1584 H   0  0  0  0  0  0  0  0  0  0  0  0
    1.6349   -0.0194   -2.1390 H   0  0  0  0  0  0  0  0  0  0  0  0
    4.1098   -0.0260   -2.1692 H   0  0  0  0  0  0  0  0  0  0  0  0
  2  1  1  0
  2  3  1  0
  3  4  1  0
  4  5  1  0
  5  6  1  0
  6  7  1  0
  7  8  1  0
  8  9  1  0
  9 10  2  0
 10 11  1  0
 11 12  2  0
 12 13  1  0
 13 14  2  0
 14 15  1  0
 15 16  2  0
 16 17  1  0
 13 18  1  0
 18 19  2  0
 19 20  1  0
 20 21  2  0
 21 22  1  0
 22 23  2  0
 21 24  1  0
 24 25  3  0
  6  2  1  0
 17  9  1  0
 23 18  1  0
 16 11  1  0
  1 26  1  0
  1 27  1  0
  1 28  1  0
  2 29  1  1
  3 30  1  0
  3 31  1  0
  4 32  1  0
  4 33  1  0
  5 34  1  0
  5 35  1  0
  7 36  1  0
  7 37  1  0
  8 38  1  0
  8 39  1  0
 10 40  1  0
 12 41  1  0
 14 42  1  0
 15 43  1  0
 19 44  1  0
 20 45  1  0
 22 46  1  0
 23 47  1  0
M  END
>  <_MoleculeID>  (275) 
smi30

>  <_InputIndex>  (275) 
30

>  <_InputSMILES>  (275) 
C[C@@H]1CCCN1CCc1cc2cc(ccc2o1)-c1ccc(cc1)C#N

>  <_InputInChIKey>  (275) 
KFHYZKCRXNRKRC-MRXNPFEDSA-N

>  <_SMILES>  (275) 
C[C@@H]1CCCN1CCc1cc2cc(-c3ccc(C#N)cc3)ccc2o1

>  <_InChIKey>  (275) 
KFHYZKCRXNRKRC-MRXNPFEDSA-N

$$$$
smi30_conf1
     RDKit          3D

 47 50  0  0  0  0  0  0  0  0999 V2000
   10.7169   -4.6629    0.6468 C   0  0  0  0  0  0  0  0  0  0  0  0
   11.9938   -3.8510    0.8230 C   0  0  2  0  0  0  0  0  0  0  0  0
   12.3183   -3.6167    2.2999 C   0  0  0  0  0  0  0  0  0  0  0  0
   12.9738   -2.2411    2.3548 C   0  0  0  0  0  0  0  0  0  0  0  0
   13.0021   -1.7560    0.9151 C   0  0  0  0  0  0  0  0  0  0  0  0
   11.8939   -2.4843    0.2924 N   0  0  0  0  0  0  0  0  0  0  0  0
   11.9661   -2.4238   -1.1556 C   0  0  0  0  0  0  0  0  0  0  0  0
   11.4288   -1.1004   -1.7031 C   0  0  0  0  0  0  0  0  0  0  0  0
   10.0208   -0.8561   -1.3544 C   0  0  0  0  0  0  0  0  0  0  0  0
    8.8140   -1.1489   -1.9762 C   0  0  0  0  0  0  0  0  0  0  0  0
    7.7991   -0.6438   -1.0949 C   0  0  0  0  0  0  0  0  0  0  0  0
    6.3902   -0.6118   -1.0915 C   0  0  0  0  0  0  0  0  0  0  0  0
    5.7220    0.0023   -0.0230 C   0  0  0  0  0  0  0  0  0  0  0  0
    6.4407    0.5940    1.0222 C   0  0  0  0  0  0  0  0  0  0  0  0
    7.8390    0.5583    1.0543 C   0  0  0  0  0  0  0  0  0  0  0  0
    8.4663   -0.0611   -0.0257 C   0  0  0  0  0  0  0  0  0  0  0  0
    9.8081   -0.1887   -0.1852 O   0  0  0  0  0  0  0  0  0  0  0  0
    4.2860    0.0019   -0.0232 C   0  0  0  0  0  0  0  0  0  0  0  0
    3.5748   -0.0006    1.1794 C   0  0  0  0  0  0  0  0  0  0  0  0
    2.1721    0.0000    1.1875 C   0  0  0  0  0  0  0  0  0  0  0  0
    1.4240    0.0000    0.0000 C   0  0  0  0  0  0  0  0  0  0  0  0
    2.1735   -0.0122   -1.1922 C   0  0  0  0  0  0  0  0  0  0  0  0
    3.5748   -0.0156   -1.2224 C   0  0  0  0  0  0  0  0  0  0  0  0
    0.0000    0.0000   -0.0000 C   0  0  0  0  0  0  0  0  0  0  0  0
   -1.1606    0.0022   -0.0032 N   0  0  0  0  0  0  0  0  0  0  0  0
   10.8013   -5.6258    1.1621 H   0  0  0  0  0  0  0  0  0  0  0  0
   10.5185   -4.8680   -0.4099 H   0  0  0  0  0  0  0  0  0  0  0  0
    9.8471   -4.1383    1.0577 H   0  0  0  0  0  0  0  0  0  0  0  0
   12.8336   -4.3868    0.3590 H   0  0  0  0  0  0  0  0  0  0  0  0
   12.9908   -4.3918    2.6831 H   0  0  0  0  0  0  0  0  0  0  0  0
   11.4184   -3.6190    2.9267 H   0  0  0  0  0  0  0  0  0  0  0  0
   13.9795   -2.2869    2.7847 H   0  0  0  0  0  0  0  0  0  0  0  0
   12.3723   -1.5694    2.9785 H   0  0  0  0  0  0  0  0  0  0  0  0
   13.9655   -2.0151    0.4571 H   0  0  0  0  0  0  0  0  0  0  0  0
   12.8682   -0.6712    0.8535 H   0  0  0  0  0  0  0  0  0  0  0  0
   11.3516   -3.2489   -1.5306 H   0  0  0  0  0  0  0  0  0  0  0  0
   12.9985   -2.5981   -1.4775 H   0  0  0  0  0  0  0  0  0  0  0  0
   11.5513   -1.0688   -2.7934 H   0  0  0  0  0  0  0  0  0  0  0  0
   12.0329   -0.2739   -1.3078 H   0  0  0  0  0  0  0  0  0  0  0  0
    8.6811   -1.6647   -2.9161 H   0  0  0  0  0  0  0  0  0  0  0  0
    5.8166   -1.0564   -1.8994 H   0  0  0  0  0  0  0  0  0  0  0  0
    5.9011    1.0678    1.8385 H   0  0  0  0  0  0  0  0  0  0  0  0
    8.4075    0.9935    1.8681 H   0  0  0  0  0  0  0  0  0  0  0  0
    4.1044   -0.0063    2.1292 H   0  0  0  0  0  0  0  0  0  0  0  0
    1.6831   -0.0073    2.1584 H   0  0  0  0  0  0  0  0  0  0  0  0
    1.6349   -0.0194   -2.1390 H   0  0  0  0  0  0  0  0  0  0  0  0
    4.1098   -0.0260   -2.1692 H   0  0  0  0  0  0  0  0  0  0  0  0
  2  1  1  0
  2  3  1  0
  3  4  1  0
  4  5  1  0
  5  6  1  0
  6  7  1  0
  7  8  1  0
  8  9  1  0
  9 10  2  0
 10 11  1  0
 11 12  2  0
 12 13  1  0
 13 14  2  0
 14 15  1  0
 15 16  2  0
 16 17  1  0
 13 18  1  0
 18 19  2  0
 19 20  1  0
 20 21  2  0
 21 22  1  0
 22 23  2  0
 21 24  1  0
 24 25  3  0
  6  2  1  0
 17  9  1  0
 23 18  1  0
 16 11  1  0
  1 26  1  0
  1 27  1  0
  1 28  1  0
  2 29  1  6
  3 30  1  0
  3 31  1  0
  4 32  1  0
  4 33  1  0
  5 34  1  0
  5 35  1  0
  7 36  1  0
  7 37  1  0
  8 38  1  0
  8 39  1  0
 10 40  1  0
 12 41  1  0
 14 42  1  0
 15 43  1  0
 19 44  1  0
 20 45  1  0
 22 46  1  0
 23 47  1  0
M  END
>  <_MoleculeID>  (276) 
smi30

>  <_InputIndex>  (276) 
30

>  <_InputSMILES>  (276) 
C[C@@H]1CCCN1CCc1cc2cc(ccc2o1)-c1ccc(cc1)C#N

>  <_InputInChIKey>  (276) 
KFHYZKCRXNRKRC-MRXNPFEDSA-N

>  <_SMILES>  (276) 
C[C@@H]1CCCN1CCc1cc2cc(-c3ccc(C#N)cc3)ccc2o1

>  <_InChIKey>  (276) 
KFHYZKCRXNRKRC-MRXNPFEDSA-N

$$$$
smi30_conf2
     RDKit          3D

 47 50  0  0  0  0  0  0  0  0999 V2000
   13.6719   -1.7693   -4.8216 C   0  0  0  0  0  0  0  0  0  0  0  0
   14.0455   -1.2660   -3.4331 C   0  0  1  0  0  0  0  0  0  0  0  0
   15.5210   -0.8695   -3.3509 C   0  0  0  0  0  0  0  0  0  0  0  0
   15.5700    0.3000   -2.3738 C   0  0  0  0  0  0  0  0  0  0  0  0
   14.1304    0.5143   -1.9373 C   0  0  0  0  0  0  0  0  0  0  0  0
   13.3549   -0.0245   -3.0573 N   0  0  0  0  0  0  0  0  0  0  0  0
   11.9655   -0.2282   -2.6918 C   0  0  0  0  0  0  0  0  0  0  0  0
   11.4282    0.9075   -1.8193 C   0  0  0  0  0  0  0  0  0  0  0  0
   10.0203    0.7272   -1.4331 C   0  0  0  0  0  0  0  0  0  0  0  0
    8.8133    1.1190   -1.9973 C   0  0  0  0  0  0  0  0  0  0  0  0
    7.7987    0.6081   -1.1190 C   0  0  0  0  0  0  0  0  0  0  0  0
    6.3898    0.6207   -1.0892 C   0  0  0  0  0  0  0  0  0  0  0  0
    5.7220    0.0023   -0.0230 C   0  0  0  0  0  0  0  0  0  0  0  0
    6.4411   -0.6068    1.0118 C   0  0  0  0  0  0  0  0  0  0  0  0
    7.8394   -0.6521    0.9966 C   0  0  0  0  0  0  0  0  0  0  0  0
    8.4663   -0.0263   -0.0799 C   0  0  0  0  0  0  0  0  0  0  0  0
    9.8080    0.0484   -0.2705 O   0  0  0  0  0  0  0  0  0  0  0  0
    4.2860    0.0019   -0.0232 C   0  0  0  0  0  0  0  0  0  0  0  0
    3.5748   -0.0006    1.1794 C   0  0  0  0  0  0  0  0  0  0  0  0
    2.1721   -0.0000    1.1875 C   0  0  0  0  0  0  0  0  0  0  0  0
    1.4240    0.0000    0.0000 C   0  0  0  0  0  0  0  0  0  0  0  0
    2.1735   -0.0122   -1.1922 C   0  0  0  0  0  0  0  0  0  0  0  0
    3.5748   -0.0156   -1.2224 C   0  0  0  0  0  0  0  0  0  0  0  0
    0.0000    0.0000   -0.0000 C   0  0  0  0  0  0  0  0  0  0  0  0
   -1.1606    0.0022   -0.0032 N   0  0  0  0  0  0  0  0  0  0  0  0
   14.2984   -2.6234   -5.1005 H   0  0  0  0  0  0  0  0  0  0  0  0
   12.6282   -2.0968   -4.8585 H   0  0  0  0  0  0  0  0  0  0  0  0
   13.8085   -0.9916   -5.5813 H   0  0  0  0  0  0  0  0  0  0  0  0
   13.8519   -2.0563   -2.6945 H   0  0  0  0  0  0  0  0  0  0  0  0
   16.1346   -1.7059   -2.9989 H   0  0  0  0  0  0  0  0  0  0  0  0
   15.9190   -0.5523   -4.3223 H   0  0  0  0  0  0  0  0  0  0  0  0
   16.2230    0.0900   -1.5207 H   0  0  0  0  0  0  0  0  0  0  0  0
   15.9575    1.1907   -2.8822 H   0  0  0  0  0  0  0  0  0  0  0  0
   13.9398   -0.0396   -1.0089 H   0  0  0  0  0  0  0  0  0  0  0  0
   13.9170    1.5734   -1.7604 H   0  0  0  0  0  0  0  0  0  0  0  0
   11.9280   -1.1675   -2.1300 H   0  0  0  0  0  0  0  0  0  0  0  0
   11.3637   -0.3527   -3.5985 H   0  0  0  0  0  0  0  0  0  0  0  0
   11.5503    1.8675   -2.3372 H   0  0  0  0  0  0  0  0  0  0  0  0
   12.0325    0.9786   -0.9060 H   0  0  0  0  0  0  0  0  0  0  0  0
    8.6800    1.6751   -2.9140 H   0  0  0  0  0  0  0  0  0  0  0  0
    5.8159    1.0980   -1.8781 H   0  0  0  0  0  0  0  0  0  0  0  0
    5.9018   -1.0770    1.8305 H   0  0  0  0  0  0  0  0  0  0  0  0
    8.4083   -1.1392    1.7803 H   0  0  0  0  0  0  0  0  0  0  0  0
    4.1044   -0.0063    2.1292 H   0  0  0  0  0  0  0  0  0  0  0  0
    1.6831   -0.0073    2.1584 H   0  0  0  0  0  0  0  0  0  0  0  0
    1.6349   -0.0194   -2.1390 H   0  0  0  0  0  0  0  0  0  0  0  0
    4.1098   -0.0260   -2.1692 H   0  0  0  0  0  0  0  0  0  0  0  0
  2  1  1  0
  2  3  1  0
  3  4  1  0
  4  5  1  0
  5  6  1  0
  6  7  1  0
  7  8  1  0
  8  9  1  0
  9 10  2  0
 10 11  1  0
 11 12  2  0
 12 13  1  0
 13 14  2  0
 14 15  1  0
 15 16  2  0
 16 17  1  0
 13 18  1  0
 18 19  2  0
 19 20  1  0
 20 21  2  0
 21 22  1  0
 22 23  2  0
 21 24  1  0
 24 25  3  0
  6  2  1  0
 17  9  1  0
 23 18  1  0
 16 11  1  0
  1 26  1  0
  1 27  1  0
  1 28  1  0
  2 29  1  1
  3 30  1  0
  3 31  1  0
  4 32  1  0
  4 33  1  0
  5 34  1  0
  5 35  1  0
  7 36  1  0
  7 37  1  0
  8 38  1  0
  8 39  1  0
 10 40  1  0
 12 41  1  0
 14 42  1  0
 15 43  1  0
 19 44  1  0
 20 45  1  0
 22 46  1  0
 23 47  1  0
M  END
>  <_MoleculeID>  (277) 
smi30

>  <_InputIndex>  (277) 
30

>  <_InputSMILES>  (277) 
C[C@@H]1CCCN1CCc1cc2cc(ccc2o1)-c1ccc(cc1)C#N

>  <_InputInChIKey>  (277) 
KFHYZKCRXNRKRC-MRXNPFEDSA-N

>  <_SMILES>  (277) 
C[C@@H]1CCCN1CCc1cc2cc(-c3ccc(C#N)cc3)ccc2o1

>  <_InChIKey>  (277) 
KFHYZKCRXNRKRC-MRXNPFEDSA-N

$$$$
smi30_conf3
     RDKit          3D

 47 50  0  0  0  0  0  0  0  0999 V2000
   12.0388   -0.8828   -2.1338 C   0  0  0  0  0  0  0  0  0  0  0  0
   12.8234    0.3722   -1.7732 C   0  0  1  0  0  0  0  0  0  0  0  0
   12.8535    1.3746   -2.9288 C   0  0  0  0  0  0  0  0  0  0  0  0
   12.8540    2.7494   -2.2696 C   0  0  0  0  0  0  0  0  0  0  0  0
   12.8321    2.4742   -0.7754 C   0  0  0  0  0  0  0  0  0  0  0  0
   12.2129    1.1496   -0.6857 N   0  0  0  0  0  0  0  0  0  0  0  0
   12.4113    0.5583    0.6244 C   0  0  0  0  0  0  0  0  0  0  0  0
   11.4277    1.1088    1.6584 C   0  0  0  0  0  0  0  0  0  0  0  0
   10.0199    0.8636    1.3093 C   0  0  0  0  0  0  0  0  0  0  0  0
    8.8127    1.1556    1.9308 C   0  0  0  0  0  0  0  0  0  0  0  0
    7.7984    0.6498    1.0493 C   0  0  0  0  0  0  0  0  0  0  0  0
    6.3895    0.6169    1.0455 C   0  0  0  0  0  0  0  0  0  0  0  0
    5.7220    0.0023   -0.0230 C   0  0  0  0  0  0  0  0  0  0  0  0
    6.4413   -0.5889   -1.0681 C   0  0  0  0  0  0  0  0  0  0  0  0
    7.8396   -0.5522   -1.0999 C   0  0  0  0  0  0  0  0  0  0  0  0
    8.4662    0.0675   -0.0197 C   0  0  0  0  0  0  0  0  0  0  0  0
    9.8079    0.1960    0.1402 O   0  0  0  0  0  0  0  0  0  0  0  0
    4.2860    0.0019   -0.0232 C   0  0  0  0  0  0  0  0  0  0  0  0
    3.5748   -0.0006    1.1794 C   0  0  0  0  0  0  0  0  0  0  0  0
    2.1721    0.0000    1.1875 C   0  0  0  0  0  0  0  0  0  0  0  0
    1.4240    0.0000    0.0000 C   0  0  0  0  0  0  0  0  0  0  0  0
    2.1735   -0.0122   -1.1922 C   0  0  0  0  0  0  0  0  0  0  0  0
    3.5748   -0.0156   -1.2224 C   0  0  0  0  0  0  0  0  0  0  0  0
    0.0000    0.0000   -0.0000 C   0  0  0  0  0  0  0  0  0  0  0  0
   -1.1606    0.0022   -0.0032 N   0  0  0  0  0  0  0  0  0  0  0  0
   12.4660   -1.3591   -3.0228 H   0  0  0  0  0  0  0  0  0  0  0  0
   12.0635   -1.6148   -1.3204 H   0  0  0  0  0  0  0  0  0  0  0  0
   10.9893   -0.6528   -2.3488 H   0  0  0  0  0  0  0  0  0  0  0  0
   13.8565    0.0962   -1.5199 H   0  0  0  0  0  0  0  0  0  0  0  0
   13.7445    1.2327   -3.5501 H   0  0  0  0  0  0  0  0  0  0  0  0
   11.9765    1.2811   -3.5806 H   0  0  0  0  0  0  0  0  0  0  0  0
   13.7303    3.3385   -2.5583 H   0  0  0  0  0  0  0  0  0  0  0  0
   11.9599    3.3060   -2.5743 H   0  0  0  0  0  0  0  0  0  0  0  0
   13.8584    2.4689   -0.3859 H   0  0  0  0  0  0  0  0  0  0  0  0
   12.2589    3.2342   -0.2347 H   0  0  0  0  0  0  0  0  0  0  0  0
   13.4339    0.8092    0.9253 H   0  0  0  0  0  0  0  0  0  0  0  0
   12.3397   -0.5320    0.5477 H   0  0  0  0  0  0  0  0  0  0  0  0
   11.5931    2.1850    1.7968 H   0  0  0  0  0  0  0  0  0  0  0  0
   11.6298    0.6450    2.6323 H   0  0  0  0  0  0  0  0  0  0  0  0
    8.6793    1.6714    2.8708 H   0  0  0  0  0  0  0  0  0  0  0  0
    5.8154    1.0611    1.8533 H   0  0  0  0  0  0  0  0  0  0  0  0
    5.9023   -1.0631   -1.8846 H   0  0  0  0  0  0  0  0  0  0  0  0
    8.4087   -0.9870   -1.9136 H   0  0  0  0  0  0  0  0  0  0  0  0
    4.1044   -0.0063    2.1292 H   0  0  0  0  0  0  0  0  0  0  0  0
    1.6831   -0.0073    2.1584 H   0  0  0  0  0  0  0  0  0  0  0  0
    1.6349   -0.0194   -2.1390 H   0  0  0  0  0  0  0  0  0  0  0  0
    4.1098   -0.0260   -2.1692 H   0  0  0  0  0  0  0  0  0  0  0  0
  2  1  1  0
  2  3  1  0
  3  4  1  0
  4  5  1  0
  5  6  1  0
  6  7  1  0
  7  8  1  0
  8  9  1  0
  9 10  2  0
 10 11  1  0
 11 12  2  0
 12 13  1  0
 13 14  2  0
 14 15  1  0
 15 16  2  0
 16 17  1  0
 13 18  1  0
 18 19  2  0
 19 20  1  0
 20 21  2  0
 21 22  1  0
 22 23  2  0
 21 24  1  0
 24 25  3  0
  6  2  1  0
 17  9  1  0
 23 18  1  0
 16 11  1  0
  1 26  1  0
  1 27  1  0
  1 28  1  0
  2 29  1  1
  3 30  1  0
  3 31  1  0
  4 32  1  0
  4 33  1  0
  5 34  1  0
  5 35  1  0
  7 36  1  0
  7 37  1  0
  8 38  1  0
  8 39  1  0
 10 40  1  0
 12 41  1  0
 14 42  1  0
 15 43  1  0
 19 44  1  0
 20 45  1  0
 22 46  1  0
 23 47  1  0
M  END
>  <_MoleculeID>  (278) 
smi30

>  <_InputIndex>  (278) 
30

>  <_InputSMILES>  (278) 
C[C@@H]1CCCN1CCc1cc2cc(ccc2o1)-c1ccc(cc1)C#N

>  <_InputInChIKey>  (278) 
KFHYZKCRXNRKRC-MRXNPFEDSA-N

>  <_SMILES>  (278) 
C[C@@H]1CCCN1CCc1cc2cc(-c3ccc(C#N)cc3)ccc2o1

>  <_InChIKey>  (278) 
KFHYZKCRXNRKRC-MRXNPFEDSA-N

$$$$
smi30_conf4
     RDKit          3D

 47 50  0  0  0  0  0  0  0  0999 V2000
   13.2078    2.8779   -4.0934 C   0  0  0  0  0  0  0  0  0  0  0  0
   13.6991    1.8979   -3.0356 C   0  0  1  0  0  0  0  0  0  0  0  0
   15.2225    1.7556   -3.0575 C   0  0  0  0  0  0  0  0  0  0  0  0
   15.6259    1.5211   -1.6058 C   0  0  0  0  0  0  0  0  0  0  0  0
   14.3230    1.5318   -0.8241 C   0  0  0  0  0  0  0  0  0  0  0  0
   13.4349    2.3432   -1.6603 N   0  0  0  0  0  0  0  0  0  0  0  0
   12.0474    2.1913   -1.2641 C   0  0  0  0  0  0  0  0  0  0  0  0
   11.4282    0.9075   -1.8193 C   0  0  0  0  0  0  0  0  0  0  0  0
   10.0203    0.7272   -1.4331 C   0  0  0  0  0  0  0  0  0  0  0  0
    8.8133    1.1190   -1.9973 C   0  0  0  0  0  0  0  0  0  0  0  0
    7.7987    0.6081   -1.1190 C   0  0  0  0  0  0  0  0  0  0  0  0
    6.3898    0.6207   -1.0892 C   0  0  0  0  0  0  0  0  0  0  0  0
    5.7220    0.0023   -0.0230 C   0  0  0  0  0  0  0  0  0  0  0  0
    6.4411   -0.6068    1.0118 C   0  0  0  0  0  0  0  0  0  0  0  0
    7.8394   -0.6521    0.9966 C   0  0  0  0  0  0  0  0  0  0  0  0
    8.4663   -0.0263   -0.0799 C   0  0  0  0  0  0  0  0  0  0  0  0
    9.8080    0.0484   -0.2705 O   0  0  0  0  0  0  0  0  0  0  0  0
    4.2860    0.0019   -0.0232 C   0  0  0  0  0  0  0  0  0  0  0  0
    3.5748   -0.0006    1.1794 C   0  0  0  0  0  0  0  0  0  0  0  0
    2.1721   -0.0000    1.1875 C   0  0  0  0  0  0  0  0  0  0  0  0
    1.4240   -0.0000    0.0000 C   0  0  0  0  0  0  0  0  0  0  0  0
    2.1735   -0.0122   -1.1922 C   0  0  0  0  0  0  0  0  0  0  0  0
    3.5748   -0.0156   -1.2224 C   0  0  0  0  0  0  0  0  0  0  0  0
    0.0000    0.0000   -0.0000 C   0  0  0  0  0  0  0  0  0  0  0  0
   -1.1606    0.0022   -0.0032 N   0  0  0  0  0  0  0  0  0  0  0  0
   13.5333    2.5606   -5.0899 H   0  0  0  0  0  0  0  0  0  0  0  0
   12.1149    2.9368   -4.1041 H   0  0  0  0  0  0  0  0  0  0  0  0
   13.5983    3.8867   -3.9191 H   0  0  0  0  0  0  0  0  0  0  0  0
   13.2510    0.9110   -3.2166 H   0  0  0  0  0  0  0  0  0  0  0  0
   15.5308    0.9196   -3.6945 H   0  0  0  0  0  0  0  0  0  0  0  0
   15.7171    2.6592   -3.4338 H   0  0  0  0  0  0  0  0  0  0  0  0
   16.1633    0.5756   -1.4809 H   0  0  0  0  0  0  0  0  0  0  0  0
   16.2860    2.3296   -1.2702 H   0  0  0  0  0  0  0  0  0  0  0  0
   13.9500    0.5053   -0.7140 H   0  0  0  0  0  0  0  0  0  0  0  0
   14.4561    1.9623    0.1737 H   0  0  0  0  0  0  0  0  0  0  0  0
   11.5135    3.0575   -1.6691 H   0  0  0  0  0  0  0  0  0  0  0  0
   11.9731    2.2292   -0.1719 H   0  0  0  0  0  0  0  0  0  0  0  0
   12.0153    0.0383   -1.4960 H   0  0  0  0  0  0  0  0  0  0  0  0
   11.4887    0.9216   -2.9150 H   0  0  0  0  0  0  0  0  0  0  0  0
    8.6800    1.6751   -2.9140 H   0  0  0  0  0  0  0  0  0  0  0  0
    5.8159    1.0980   -1.8781 H   0  0  0  0  0  0  0  0  0  0  0  0
    5.9018   -1.0770    1.8305 H   0  0  0  0  0  0  0  0  0  0  0  0
    8.4083   -1.1392    1.7803 H   0  0  0  0  0  0  0  0  0  0  0  0
    4.1044   -0.0063    2.1292 H   0  0  0  0  0  0  0  0  0  0  0  0
    1.6831   -0.0073    2.1584 H   0  0  0  0  0  0  0  0  0  0  0  0
    1.6349   -0.0194   -2.1390 H   0  0  0  0  0  0  0  0  0  0  0  0
    4.1098   -0.0260   -2.1692 H   0  0  0  0  0  0  0  0  0  0  0  0
  2  1  1  0
  2  3  1  0
  3  4  1  0
  4  5  1  0
  5  6  1  0
  6  7  1  0
  7  8  1  0
  8  9  1  0
  9 10  2  0
 10 11  1  0
 11 12  2  0
 12 13  1  0
 13 14  2  0
 14 15  1  0
 15 16  2  0
 16 17  1  0
 13 18  1  0
 18 19  2  0
 19 20  1  0
 20 21  2  0
 21 22  1  0
 22 23  2  0
 21 24  1  0
 24 25  3  0
  6  2  1  0
 17  9  1  0
 23 18  1  0
 16 11  1  0
  1 26  1  0
  1 27  1  0
  1 28  1  0
  2 29  1  6
  3 30  1  0
  3 31  1  0
  4 32  1  0
  4 33  1  0
  5 34  1  0
  5 35  1  0
  7 36  1  0
  7 37  1  0
  8 38  1  0
  8 39  1  0
 10 40  1  0
 12 41  1  0
 14 42  1  0
 15 43  1  0
 19 44  1  0
 20 45  1  0
 22 46  1  0
 23 47  1  0
M  END
>  <_MoleculeID>  (279) 
smi30

>  <_InputIndex>  (279) 
30

>  <_InputSMILES>  (279) 
C[C@@H]1CCCN1CCc1cc2cc(ccc2o1)-c1ccc(cc1)C#N

>  <_InputInChIKey>  (279) 
KFHYZKCRXNRKRC-MRXNPFEDSA-N

>  <_SMILES>  (279) 
C[C@@H]1CCCN1CCc1cc2cc(-c3ccc(C#N)cc3)ccc2o1

>  <_InChIKey>  (279) 
KFHYZKCRXNRKRC-MRXNPFEDSA-N

$$$$
smi30_conf5
     RDKit          3D

 47 50  0  0  0  0  0  0  0  0999 V2000
   13.6537   -0.7180    1.8710 C   0  0  0  0  0  0  0  0  0  0  0  0
   13.4847    0.6952    1.3278 C   0  0  2  0  0  0  0  0  0  0  0  0
   13.2669    1.7124    2.4499 C   0  0  0  0  0  0  0  0  0  0  0  0
   12.3320    2.7647    1.8637 C   0  0  0  0  0  0  0  0  0  0  0  0
   12.0645    2.3098    0.4388 C   0  0  0  0  0  0  0  0  0  0  0  0
   12.2814    0.8623    0.5009 N   0  0  0  0  0  0  0  0  0  0  0  0
   12.4116    0.2876   -0.8251 C   0  0  0  0  0  0  0  0  0  0  0  0
   11.4282    0.9075   -1.8193 C   0  0  0  0  0  0  0  0  0  0  0  0
   10.0203    0.7272   -1.4331 C   0  0  0  0  0  0  0  0  0  0  0  0
    8.8133    1.1190   -1.9973 C   0  0  0  0  0  0  0  0  0  0  0  0
    7.7987    0.6081   -1.1190 C   0  0  0  0  0  0  0  0  0  0  0  0
    6.3898    0.6207   -1.0892 C   0  0  0  0  0  0  0  0  0  0  0  0
    5.7220    0.0023   -0.0230 C   0  0  0  0  0  0  0  0  0  0  0  0
    6.4411   -0.6068    1.0118 C   0  0  0  0  0  0  0  0  0  0  0  0
    7.8394   -0.6521    0.9966 C   0  0  0  0  0  0  0  0  0  0  0  0
    8.4663   -0.0263   -0.0799 C   0  0  0  0  0  0  0  0  0  0  0  0
    9.8080    0.0484   -0.2705 O   0  0  0  0  0  0  0  0  0  0  0  0
    4.2860    0.0019   -0.0232 C   0  0  0  0  0  0  0  0  0  0  0  0
    3.5748   -0.0006    1.1794 C   0  0  0  0  0  0  0  0  0  0  0  0
    2.1721    0.0000    1.1875 C   0  0  0  0  0  0  0  0  0  0  0  0
    1.4240    0.0000    0.0000 C   0  0  0  0  0  0  0  0  0  0  0  0
    2.1735   -0.0122   -1.1922 C   0  0  0  0  0  0  0  0  0  0  0  0
    3.5748   -0.0156   -1.2224 C   0  0  0  0  0  0  0  0  0  0  0  0
    0.0000    0.0000   -0.0000 C   0  0  0  0  0  0  0  0  0  0  0  0
   -1.1606    0.0022   -0.0032 N   0  0  0  0  0  0  0  0  0  0  0  0
   14.4928   -0.7602    2.5737 H   0  0  0  0  0  0  0  0  0  0  0  0
   13.8579   -1.4316    1.0665 H   0  0  0  0  0  0  0  0  0  0  0  0
   12.7558   -1.0550    2.4010 H   0  0  0  0  0  0  0  0  0  0  0  0
   14.3846    0.9796    0.7650 H   0  0  0  0  0  0  0  0  0  0  0  0
   14.2159    2.1580    2.7672 H   0  0  0  0  0  0  0  0  0  0  0  0
   12.8011    1.2601    3.3338 H   0  0  0  0  0  0  0  0  0  0  0  0
   12.7772    3.7644    1.8909 H   0  0  0  0  0  0  0  0  0  0  0  0
   11.4011    2.7957    2.4420 H   0  0  0  0  0  0  0  0  0  0  0  0
   12.7732    2.7968   -0.2435 H   0  0  0  0  0  0  0  0  0  0  0  0
   11.0474    2.5605    0.1208 H   0  0  0  0  0  0  0  0  0  0  0  0
   12.1985   -0.7815   -0.7211 H   0  0  0  0  0  0  0  0  0  0  0  0
   13.4460    0.3939   -1.1693 H   0  0  0  0  0  0  0  0  0  0  0  0
   11.5942    0.4893   -2.8204 H   0  0  0  0  0  0  0  0  0  0  0  0
   11.6300    1.9828   -1.9044 H   0  0  0  0  0  0  0  0  0  0  0  0
    8.6800    1.6751   -2.9140 H   0  0  0  0  0  0  0  0  0  0  0  0
    5.8159    1.0980   -1.8781 H   0  0  0  0  0  0  0  0  0  0  0  0
    5.9018   -1.0770    1.8305 H   0  0  0  0  0  0  0  0  0  0  0  0
    8.4083   -1.1392    1.7803 H   0  0  0  0  0  0  0  0  0  0  0  0
    4.1044   -0.0063    2.1292 H   0  0  0  0  0  0  0  0  0  0  0  0
    1.6831   -0.0073    2.1584 H   0  0  0  0  0  0  0  0  0  0  0  0
    1.6349   -0.0194   -2.1390 H   0  0  0  0  0  0  0  0  0  0  0  0
    4.1098   -0.0260   -2.1692 H   0  0  0  0  0  0  0  0  0  0  0  0
  2  1  1  0
  2  3  1  0
  3  4  1  0
  4  5  1  0
  5  6  1  0
  6  7  1  0
  7  8  1  0
  8  9  1  0
  9 10  2  0
 10 11  1  0
 11 12  2  0
 12 13  1  0
 13 14  2  0
 14 15  1  0
 15 16  2  0
 16 17  1  0
 13 18  1  0
 18 19  2  0
 19 20  1  0
 20 21  2  0
 21 22  1  0
 22 23  2  0
 21 24  1  0
 24 25  3  0
  6  2  1  0
 17  9  1  0
 23 18  1  0
 16 11  1  0
  1 26  1  0
  1 27  1  0
  1 28  1  0
  2 29  1  6
  3 30  1  0
  3 31  1  0
  4 32  1  0
  4 33  1  0
  5 34  1  0
  5 35  1  0
  7 36  1  0
  7 37  1  0
  8 38  1  0
  8 39  1  0
 10 40  1  0
 12 41  1  0
 14 42  1  0
 15 43  1  0
 19 44  1  0
 20 45  1  0
 22 46  1  0
 23 47  1  0
M  END
>  <_MoleculeID>  (280) 
smi30

>  <_InputIndex>  (280) 
30

>  <_InputSMILES>  (280) 
C[C@@H]1CCCN1CCc1cc2cc(ccc2o1)-c1ccc(cc1)C#N

>  <_InputInChIKey>  (280) 
KFHYZKCRXNRKRC-MRXNPFEDSA-N

>  <_SMILES>  (280) 
C[C@@H]1CCCN1CCc1cc2cc(-c3ccc(C#N)cc3)ccc2o1

>  <_InChIKey>  (280) 
KFHYZKCRXNRKRC-MRXNPFEDSA-N

$$$$
smi30_conf6
     RDKit          3D

 47 50  0  0  0  0  0  0  0  0999 V2000
   13.3227    2.1491    3.9212 C   0  0  0  0  0  0  0  0  0  0  0  0
   13.5266    3.1881    2.8259 C   0  0  1  0  0  0  0  0  0  0  0  0
   14.9645    3.7108    2.7997 C   0  0  0  0  0  0  0  0  0  0  0  0
   15.2633    3.9943    1.3317 C   0  0  0  0  0  0  0  0  0  0  0  0
   13.9886    3.6309    0.5888 C   0  0  0  0  0  0  0  0  0  0  0  0
   13.3534    2.6481    1.4702 N   0  0  0  0  0  0  0  0  0  0  0  0
   11.9642    2.4325    1.1111 C   0  0  0  0  0  0  0  0  0  0  0  0
   11.4277    1.1088    1.6584 C   0  0  0  0  0  0  0  0  0  0  0  0
   10.0199    0.8636    1.3093 C   0  0  0  0  0  0  0  0  0  0  0  0
    8.8127    1.1556    1.9308 C   0  0  0  0  0  0  0  0  0  0  0  0
    7.7984    0.6498    1.0493 C   0  0  0  0  0  0  0  0  0  0  0  0
    6.3895    0.6169    1.0455 C   0  0  0  0  0  0  0  0  0  0  0  0
    5.7220    0.0023   -0.0230 C   0  0  0  0  0  0  0  0  0  0  0  0
    6.4413   -0.5889   -1.0681 C   0  0  0  0  0  0  0  0  0  0  0  0
    7.8396   -0.5522   -1.0999 C   0  0  0  0  0  0  0  0  0  0  0  0
    8.4662    0.0675   -0.0197 C   0  0  0  0  0  0  0  0  0  0  0  0
    9.8079    0.1960    0.1402 O   0  0  0  0  0  0  0  0  0  0  0  0
    4.2860    0.0019   -0.0232 C   0  0  0  0  0  0  0  0  0  0  0  0
    3.5748   -0.0006    1.1794 C   0  0  0  0  0  0  0  0  0  0  0  0
    2.1721    0.0000    1.1875 C   0  0  0  0  0  0  0  0  0  0  0  0
    1.4240    0.0000    0.0000 C   0  0  0  0  0  0  0  0  0  0  0  0
    2.1735   -0.0122   -1.1922 C   0  0  0  0  0  0  0  0  0  0  0  0
    3.5748   -0.0156   -1.2224 C   0  0  0  0  0  0  0  0  0  0  0  0
    0.0000    0.0000   -0.0000 C   0  0  0  0  0  0  0  0  0  0  0  0
   -1.1606    0.0022   -0.0032 N   0  0  0  0  0  0  0  0  0  0  0  0
   13.5793    2.5691    4.8997 H   0  0  0  0  0  0  0  0  0  0  0  0
   12.2808    1.8167    3.9652 H   0  0  0  0  0  0  0  0  0  0  0  0
   13.9519    1.2666    3.7603 H   0  0  0  0  0  0  0  0  0  0  0  0
   12.8474    4.0351    2.9957 H   0  0  0  0  0  0  0  0  0  0  0  0
   15.0652    4.6169    3.4069 H   0  0  0  0  0  0  0  0  0  0  0  0
   15.6799    2.9734    3.1834 H   0  0  0  0  0  0  0  0  0  0  0  0
   15.5411    5.0405    1.1680 H   0  0  0  0  0  0  0  0  0  0  0  0
   16.0989    3.3686    0.9968 H   0  0  0  0  0  0  0  0  0  0  0  0
   13.3656    4.5262    0.4646 H   0  0  0  0  0  0  0  0  0  0  0  0
   14.2042    3.2172   -0.4016 H   0  0  0  0  0  0  0  0  0  0  0  0
   11.9266    2.4157    0.0168 H   0  0  0  0  0  0  0  0  0  0  0  0
   11.3619    3.2797    1.4567 H   0  0  0  0  0  0  0  0  0  0  0  0
   11.5499    1.0774    2.7487 H   0  0  0  0  0  0  0  0  0  0  0  0
   12.0324    0.2827    1.2633 H   0  0  0  0  0  0  0  0  0  0  0  0
    8.6793    1.6714    2.8708 H   0  0  0  0  0  0  0  0  0  0  0  0
    5.8154    1.0611    1.8533 H   0  0  0  0  0  0  0  0  0  0  0  0
    5.9023   -1.0631   -1.8846 H   0  0  0  0  0  0  0  0  0  0  0  0
    8.4087   -0.9870   -1.9136 H   0  0  0  0  0  0  0  0  0  0  0  0
    4.1044   -0.0063    2.1292 H   0  0  0  0  0  0  0  0  0  0  0  0
    1.6831   -0.0073    2.1584 H   0  0  0  0  0  0  0  0  0  0  0  0
    1.6349   -0.0194   -2.1390 H   0  0  0  0  0  0  0  0  0  0  0  0
    4.1098   -0.0260   -2.1692 H   0  0  0  0  0  0  0  0  0  0  0  0
  2  1  1  0
  2  3  1  0
  3  4  1  0
  4  5  1  0
  5  6  1  0
  6  7  1  0
  7  8  1  0
  8  9  1  0
  9 10  2  0
 10 11  1  0
 11 12  2  0
 12 13  1  0
 13 14  2  0
 14 15  1  0
 15 16  2  0
 16 17  1  0
 13 18  1  0
 18 19  2  0
 19 20  1  0
 20 21  2  0
 21 22  1  0
 22 23  2  0
 21 24  1  0
 24 25  3  0
  6  2  1  0
 17  9  1  0
 23 18  1  0
 16 11  1  0
  1 26  1  0
  1 27  1  0
  1 28  1  0
  2 29  1  1
  3 30  1  0
  3 31  1  0
  4 32  1  0
  4 33  1  0
  5 34  1  0
  5 35  1  0
  7 36  1  0
  7 37  1  0
  8 38  1  0
  8 39  1  0
 10 40  1  0
 12 41  1  0
 14 42  1  0
 15 43  1  0
 19 44  1  0
 20 45  1  0
 22 46  1  0
 23 47  1  0
M  END
>  <_MoleculeID>  (281) 
smi30

>  <_InputIndex>  (281) 
30

>  <_InputSMILES>  (281) 
C[C@@H]1CCCN1CCc1cc2cc(ccc2o1)-c1ccc(cc1)C#N

>  <_InputInChIKey>  (281) 
KFHYZKCRXNRKRC-MRXNPFEDSA-N

>  <_SMILES>  (281) 
C[C@@H]1CCCN1CCc1cc2cc(-c3ccc(C#N)cc3)ccc2o1

>  <_InChIKey>  (281) 
KFHYZKCRXNRKRC-MRXNPFEDSA-N

$$$$
smi30_conf7
     RDKit          3D

 47 50  0  0  0  0  0  0  0  0999 V2000
   13.3071    2.6071    3.6625 C   0  0  0  0  0  0  0  0  0  0  0  0
   13.5963    1.1454    3.9796 C   0  0  2  0  0  0  0  0  0  0  0  0
   15.0594    0.9281    4.3713 C   0  0  0  0  0  0  0  0  0  0  0  0
   15.4152   -0.4586    3.8467 C   0  0  0  0  0  0  0  0  0  0  0  0
   14.1456   -0.9730    3.1890 C   0  0  0  0  0  0  0  0  0  0  0  0
   13.4351    0.2545    2.8221 N   0  0  0  0  0  0  0  0  0  0  0  0
   12.0476   -0.0135    2.4926 C   0  0  0  0  0  0  0  0  0  0  0  0
   11.4277    1.1088    1.6584 C   0  0  0  0  0  0  0  0  0  0  0  0
   10.0199    0.8636    1.3093 C   0  0  0  0  0  0  0  0  0  0  0  0
    8.8127    1.1556    1.9308 C   0  0  0  0  0  0  0  0  0  0  0  0
    7.7984    0.6498    1.0493 C   0  0  0  0  0  0  0  0  0  0  0  0
    6.3895    0.6169    1.0455 C   0  0  0  0  0  0  0  0  0  0  0  0
    5.7220    0.0023   -0.0230 C   0  0  0  0  0  0  0  0  0  0  0  0
    6.4413   -0.5889   -1.0681 C   0  0  0  0  0  0  0  0  0  0  0  0
    7.8396   -0.5522   -1.0999 C   0  0  0  0  0  0  0  0  0  0  0  0
    8.4662    0.0675   -0.0197 C   0  0  0  0  0  0  0  0  0  0  0  0
    9.8079    0.1960    0.1402 O   0  0  0  0  0  0  0  0  0  0  0  0
    4.2860    0.0019   -0.0232 C   0  0  0  0  0  0  0  0  0  0  0  0
    3.5748   -0.0006    1.1794 C   0  0  0  0  0  0  0  0  0  0  0  0
    2.1721    0.0000    1.1875 C   0  0  0  0  0  0  0  0  0  0  0  0
    1.4240   -0.0000    0.0000 C   0  0  0  0  0  0  0  0  0  0  0  0
    2.1735   -0.0122   -1.1922 C   0  0  0  0  0  0  0  0  0  0  0  0
    3.5748   -0.0156   -1.2224 C   0  0  0  0  0  0  0  0  0  0  0  0
    0.0000    0.0000   -0.0000 C   0  0  0  0  0  0  0  0  0  0  0  0
   -1.1606    0.0022   -0.0032 N   0  0  0  0  0  0  0  0  0  0  0  0
   13.5564    3.2413    4.5201 H   0  0  0  0  0  0  0  0  0  0  0  0
   12.2486    2.7621    3.4313 H   0  0  0  0  0  0  0  0  0  0  0  0
   13.8942    2.9564    2.8059 H   0  0  0  0  0  0  0  0  0  0  0  0
   12.9571    0.8194    4.8119 H   0  0  0  0  0  0  0  0  0  0  0  0
   15.1891    0.9862    5.4575 H   0  0  0  0  0  0  0  0  0  0  0  0
   15.7242    1.6731    3.9178 H   0  0  0  0  0  0  0  0  0  0  0  0
   15.7513   -1.1230    4.6491 H   0  0  0  0  0  0  0  0  0  0  0  0
   16.2267   -0.3797    3.1138 H   0  0  0  0  0  0  0  0  0  0  0  0
   13.5736   -1.5725    3.9091 H   0  0  0  0  0  0  0  0  0  0  0  0
   14.3683   -1.5962    2.3170 H   0  0  0  0  0  0  0  0  0  0  0  0
   11.5139   -0.0962    3.4452 H   0  0  0  0  0  0  0  0  0  0  0  0
   11.9739   -0.9784    1.9793 H   0  0  0  0  0  0  0  0  0  0  0  0
   12.0146    1.2637    0.7440 H   0  0  0  0  0  0  0  0  0  0  0  0
   11.4876    2.0507    2.2185 H   0  0  0  0  0  0  0  0  0  0  0  0
    8.6793    1.6714    2.8708 H   0  0  0  0  0  0  0  0  0  0  0  0
    5.8154    1.0611    1.8533 H   0  0  0  0  0  0  0  0  0  0  0  0
    5.9023   -1.0631   -1.8846 H   0  0  0  0  0  0  0  0  0  0  0  0
    8.4087   -0.9870   -1.9136 H   0  0  0  0  0  0  0  0  0  0  0  0
    4.1044   -0.0063    2.1292 H   0  0  0  0  0  0  0  0  0  0  0  0
    1.6831   -0.0073    2.1584 H   0  0  0  0  0  0  0  0  0  0  0  0
    1.6349   -0.0194   -2.1390 H   0  0  0  0  0  0  0  0  0  0  0  0
    4.1098   -0.0260   -2.1692 H   0  0  0  0  0  0  0  0  0  0  0  0
  2  1  1  0
  2  3  1  0
  3  4  1  0
  4  5  1  0
  5  6  1  0
  6  7  1  0
  7  8  1  0
  8  9  1  0
  9 10  2  0
 10 11  1  0
 11 12  2  0
 12 13  1  0
 13 14  2  0
 14 15  1  0
 15 16  2  0
 16 17  1  0
 13 18  1  0
 18 19  2  0
 19 20  1  0
 20 21  2  0
 21 22  1  0
 22 23  2  0
 21 24  1  0
 24 25  3  0
  6  2  1  0
 17  9  1  0
 23 18  1  0
 16 11  1  0
  1 26  1  0
  1 27  1  0
  1 28  1  0
  2 29  1  1
  3 30  1  0
  3 31  1  0
  4 32  1  0
  4 33  1  0
  5 34  1  0
  5 35  1  0
  7 36  1  0
  7 37  1  0
  8 38  1  0
  8 39  1  0
 10 40  1  0
 12 41  1  0
 14 42  1  0
 15 43  1  0
 19 44  1  0
 20 45  1  0
 22 46  1  0
 23 47  1  0
M  END
>  <_MoleculeID>  (282) 
smi30

>  <_InputIndex>  (282) 
30

>  <_InputSMILES>  (282) 
C[C@@H]1CCCN1CCc1cc2cc(ccc2o1)-c1ccc(cc1)C#N

>  <_InputInChIKey>  (282) 
KFHYZKCRXNRKRC-MRXNPFEDSA-N

>  <_SMILES>  (282) 
C[C@@H]1CCCN1CCc1cc2cc(-c3ccc(C#N)cc3)ccc2o1

>  <_InChIKey>  (282) 
KFHYZKCRXNRKRC-MRXNPFEDSA-N

$$$$
smi30_conf8
     RDKit          3D

 47 50  0  0  0  0  0  0  0  0999 V2000
   13.1730   -4.5581   -3.1077 C   0  0  0  0  0  0  0  0  0  0  0  0
   13.5348   -3.0930   -2.9002 C   0  0  2  0  0  0  0  0  0  0  0  0
   15.0221   -2.8346   -3.1503 C   0  0  0  0  0  0  0  0  0  0  0  0
   15.4082   -1.7279   -2.1751 C   0  0  0  0  0  0  0  0  0  0  0  0
   14.1309   -1.3990   -1.4206 C   0  0  0  0  0  0  0  0  0  0  0  0
   13.3555   -2.6384   -1.5143 N   0  0  0  0  0  0  0  0  0  0  0  0
   11.9661   -2.4238   -1.1556 C   0  0  0  0  0  0  0  0  0  0  0  0
   11.4288   -1.1004   -1.7031 C   0  0  0  0  0  0  0  0  0  0  0  0
   10.0208   -0.8561   -1.3544 C   0  0  0  0  0  0  0  0  0  0  0  0
    8.8140   -1.1489   -1.9762 C   0  0  0  0  0  0  0  0  0  0  0  0
    7.7991   -0.6438   -1.0949 C   0  0  0  0  0  0  0  0  0  0  0  0
    6.3902   -0.6118   -1.0915 C   0  0  0  0  0  0  0  0  0  0  0  0
    5.7220    0.0023   -0.0230 C   0  0  0  0  0  0  0  0  0  0  0  0
    6.4407    0.5940    1.0222 C   0  0  0  0  0  0  0  0  0  0  0  0
    7.8390    0.5583    1.0543 C   0  0  0  0  0  0  0  0  0  0  0  0
    8.4663   -0.0611   -0.0257 C   0  0  0  0  0  0  0  0  0  0  0  0
    9.8081   -0.1887   -0.1852 O   0  0  0  0  0  0  0  0  0  0  0  0
    4.2860    0.0019   -0.0232 C   0  0  0  0  0  0  0  0  0  0  0  0
    3.5748   -0.0006    1.1794 C   0  0  0  0  0  0  0  0  0  0  0  0
    2.1721    0.0000    1.1875 C   0  0  0  0  0  0  0  0  0  0  0  0
    1.4240    0.0000    0.0000 C   0  0  0  0  0  0  0  0  0  0  0  0
    2.1735   -0.0122   -1.1922 C   0  0  0  0  0  0  0  0  0  0  0  0
    3.5748   -0.0156   -1.2224 C   0  0  0  0  0  0  0  0  0  0  0  0
    0.0000    0.0000   -0.0000 C   0  0  0  0  0  0  0  0  0  0  0  0
   -1.1606    0.0022   -0.0032 N   0  0  0  0  0  0  0  0  0  0  0  0
   13.4363   -4.8776   -4.1218 H   0  0  0  0  0  0  0  0  0  0  0  0
   12.0994   -4.7254   -2.9751 H   0  0  0  0  0  0  0  0  0  0  0  0
   13.7050   -5.2072   -2.4033 H   0  0  0  0  0  0  0  0  0  0  0  0
   12.9487   -2.4712   -3.5912 H   0  0  0  0  0  0  0  0  0  0  0  0
   15.1999   -2.5290   -4.1871 H   0  0  0  0  0  0  0  0  0  0  0  0
   15.6347   -3.7235   -2.9570 H   0  0  0  0  0  0  0  0  0  0  0  0
   15.8077   -0.8504   -2.6935 H   0  0  0  0  0  0  0  0  0  0  0  0
   16.1809   -2.0931   -1.4884 H   0  0  0  0  0  0  0  0  0  0  0  0
   13.6176   -0.5618   -1.9111 H   0  0  0  0  0  0  0  0  0  0  0  0
   14.3375   -1.1200   -0.3824 H   0  0  0  0  0  0  0  0  0  0  0  0
   11.9282   -2.4070   -0.0613 H   0  0  0  0  0  0  0  0  0  0  0  0
   11.3644   -3.2713   -1.5014 H   0  0  0  0  0  0  0  0  0  0  0  0
   11.5513   -1.0688   -2.7934 H   0  0  0  0  0  0  0  0  0  0  0  0
   12.0329   -0.2739   -1.3078 H   0  0  0  0  0  0  0  0  0  0  0  0
    8.6811   -1.6647   -2.9161 H   0  0  0  0  0  0  0  0  0  0  0  0
    5.8166   -1.0564   -1.8994 H   0  0  0  0  0  0  0  0  0  0  0  0
    5.9011    1.0678    1.8385 H   0  0  0  0  0  0  0  0  0  0  0  0
    8.4075    0.9935    1.8681 H   0  0  0  0  0  0  0  0  0  0  0  0
    4.1044   -0.0063    2.1292 H   0  0  0  0  0  0  0  0  0  0  0  0
    1.6831   -0.0073    2.1584 H   0  0  0  0  0  0  0  0  0  0  0  0
    1.6349   -0.0194   -2.1390 H   0  0  0  0  0  0  0  0  0  0  0  0
    4.1098   -0.0260   -2.1692 H   0  0  0  0  0  0  0  0  0  0  0  0
  2  1  1  0
  2  3  1  0
  3  4  1  0
  4  5  1  0
  5  6  1  0
  6  7  1  0
  7  8  1  0
  8  9  1  0
  9 10  2  0
 10 11  1  0
 11 12  2  0
 12 13  1  0
 13 14  2  0
 14 15  1  0
 15 16  2  0
 16 17  1  0
 13 18  1  0
 18 19  2  0
 19 20  1  0
 20 21  2  0
 21 22  1  0
 22 23  2  0
 21 24  1  0
 24 25  3  0
  6  2  1  0
 17  9  1  0
 23 18  1  0
 16 11  1  0
  1 26  1  0
  1 27  1  0
  1 28  1  0
  2 29  1  6
  3 30  1  0
  3 31  1  0
  4 32  1  0
  4 33  1  0
  5 34  1  0
  5 35  1  0
  7 36  1  0
  7 37  1  0
  8 38  1  0
  8 39  1  0
 10 40  1  0
 12 41  1  0
 14 42  1  0
 15 43  1  0
 19 44  1  0
 20 45  1  0
 22 46  1  0
 23 47  1  0
M  END
>  <_MoleculeID>  (283) 
smi30

>  <_InputIndex>  (283) 
30

>  <_InputSMILES>  (283) 
C[C@@H]1CCCN1CCc1cc2cc(ccc2o1)-c1ccc(cc1)C#N

>  <_InputInChIKey>  (283) 
KFHYZKCRXNRKRC-MRXNPFEDSA-N

>  <_SMILES>  (283) 
C[C@@H]1CCCN1CCc1cc2cc(-c3ccc(C#N)cc3)ccc2o1

>  <_InChIKey>  (283) 
KFHYZKCRXNRKRC-MRXNPFEDSA-N

$$$$
smi30_conf9
     RDKit          3D

 47 50  0  0  0  0  0  0  0  0999 V2000
   13.3069    0.6069    5.2899 C   0  0  0  0  0  0  0  0  0  0  0  0
   13.6716    0.9005    3.8403 C   0  0  2  0  0  0  0  0  0  0  0  0
   15.1525    1.2537    3.6878 C   0  0  0  0  0  0  0  0  0  0  0  0
   15.2091    2.2713    2.5536 C   0  0  0  0  0  0  0  0  0  0  0  0
   13.7681    2.4479    2.1053 C   0  0  0  0  0  0  0  0  0  0  0  0
   12.9975    2.0885    3.2983 N   0  0  0  0  0  0  0  0  0  0  0  0
   11.6005    1.8607    2.9793 C   0  0  0  0  0  0  0  0  0  0  0  0
   11.4277    1.1088    1.6584 C   0  0  0  0  0  0  0  0  0  0  0  0
   10.0199    0.8636    1.3093 C   0  0  0  0  0  0  0  0  0  0  0  0
    8.8127    1.1556    1.9308 C   0  0  0  0  0  0  0  0  0  0  0  0
    7.7984    0.6498    1.0493 C   0  0  0  0  0  0  0  0  0  0  0  0
    6.3895    0.6169    1.0455 C   0  0  0  0  0  0  0  0  0  0  0  0
    5.7220    0.0023   -0.0230 C   0  0  0  0  0  0  0  0  0  0  0  0
    6.4413   -0.5889   -1.0681 C   0  0  0  0  0  0  0  0  0  0  0  0
    7.8396   -0.5522   -1.0999 C   0  0  0  0  0  0  0  0  0  0  0  0
    8.4662    0.0675   -0.0197 C   0  0  0  0  0  0  0  0  0  0  0  0
    9.8079    0.1960    0.1402 O   0  0  0  0  0  0  0  0  0  0  0  0
    4.2860    0.0019   -0.0232 C   0  0  0  0  0  0  0  0  0  0  0  0
    3.5748   -0.0006    1.1794 C   0  0  0  0  0  0  0  0  0  0  0  0
    2.1721    0.0000    1.1875 C   0  0  0  0  0  0  0  0  0  0  0  0
    1.4240    0.0000    0.0000 C   0  0  0  0  0  0  0  0  0  0  0  0
    2.1735   -0.0122   -1.1922 C   0  0  0  0  0  0  0  0  0  0  0  0
    3.5748   -0.0156   -1.2224 C   0  0  0  0  0  0  0  0  0  0  0  0
    0.0000    0.0000   -0.0000 C   0  0  0  0  0  0  0  0  0  0  0  0
   -1.1606    0.0022   -0.0032 N   0  0  0  0  0  0  0  0  0  0  0  0
   13.9222   -0.2103    5.6815 H   0  0  0  0  0  0  0  0  0  0  0  0
   12.2583    0.3074    5.3835 H   0  0  0  0  0  0  0  0  0  0  0  0
   13.4661    1.4821    5.9297 H   0  0  0  0  0  0  0  0  0  0  0  0
   13.4554    0.0168    3.2237 H   0  0  0  0  0  0  0  0  0  0  0  0
   15.7473    0.3645    3.4525 H   0  0  0  0  0  0  0  0  0  0  0  0
   15.5679    1.6985    4.6001 H   0  0  0  0  0  0  0  0  0  0  0  0
   15.8479    1.9299    1.7327 H   0  0  0  0  0  0  0  0  0  0  0  0
   15.6180    3.2179    2.9261 H   0  0  0  0  0  0  0  0  0  0  0  0
   13.5565    1.7712    1.2672 H   0  0  0  0  0  0  0  0  0  0  0  0
   13.5706    3.4749    1.7814 H   0  0  0  0  0  0  0  0  0  0  0  0
   11.1364    2.8493    2.8986 H   0  0  0  0  0  0  0  0  0  0  0  0
   11.1191    1.3281    3.8066 H   0  0  0  0  0  0  0  0  0  0  0  0
   11.9714    0.1561    1.6959 H   0  0  0  0  0  0  0  0  0  0  0  0
   11.8902    1.6884    0.8495 H   0  0  0  0  0  0  0  0  0  0  0  0
    8.6793    1.6714    2.8708 H   0  0  0  0  0  0  0  0  0  0  0  0
    5.8154    1.0611    1.8533 H   0  0  0  0  0  0  0  0  0  0  0  0
    5.9023   -1.0631   -1.8846 H   0  0  0  0  0  0  0  0  0  0  0  0
    8.4087   -0.9870   -1.9136 H   0  0  0  0  0  0  0  0  0  0  0  0
    4.1044   -0.0063    2.1292 H   0  0  0  0  0  0  0  0  0  0  0  0
    1.6831   -0.0073    2.1584 H   0  0  0  0  0  0  0  0  0  0  0  0
    1.6349   -0.0194   -2.1390 H   0  0  0  0  0  0  0  0  0  0  0  0
    4.1098   -0.0260   -2.1692 H   0  0  0  0  0  0  0  0  0  0  0  0
  2  1  1  0
  2  3  1  0
  3  4  1  0
  4  5  1  0
  5  6  1  0
  6  7  1  0
  7  8  1  0
  8  9  1  0
  9 10  2  0
 10 11  1  0
 11 12  2  0
 12 13  1  0
 13 14  2  0
 14 15  1  0
 15 16  2  0
 16 17  1  0
 13 18  1  0
 18 19  2  0
 19 20  1  0
 20 21  2  0
 21 22  1  0
 22 23  2  0
 21 24  1  0
 24 25  3  0
  6  2  1  0
 17  9  1  0
 23 18  1  0
 16 11  1  0
  1 26  1  0
  1 27  1  0
  1 28  1  0
  2 29  1  6
  3 30  1  0
  3 31  1  0
  4 32  1  0
  4 33  1  0
  5 34  1  0
  5 35  1  0
  7 36  1  0
  7 37  1  0
  8 38  1  0
  8 39  1  0
 10 40  1  0
 12 41  1  0
 14 42  1  0
 15 43  1  0
 19 44  1  0
 20 45  1  0
 22 46  1  0
 23 47  1  0
M  END
>  <_MoleculeID>  (284) 
smi30

>  <_InputIndex>  (284) 
30

>  <_InputSMILES>  (284) 
C[C@@H]1CCCN1CCc1cc2cc(ccc2o1)-c1ccc(cc1)C#N

>  <_InputInChIKey>  (284) 
KFHYZKCRXNRKRC-MRXNPFEDSA-N

>  <_SMILES>  (284) 
C[C@@H]1CCCN1CCc1cc2cc(-c3ccc(C#N)cc3)ccc2o1

>  <_InChIKey>  (284) 
KFHYZKCRXNRKRC-MRXNPFEDSA-N

$$$$
smi31_conf0
     RDKit          3D

 58 62  0  0  0  0  0  0  0  0999 V2000
    7.6644   -0.2329    2.0852 C   0  0  0  0  0  0  0  0  0  0  0  0
    6.2025   -0.1197    1.8723 N   0  0  0  0  0  0  0  0  0  0  0  0
    5.6726   -0.4353    0.5377 C   0  0  0  0  0  0  0  0  0  0  0  0
    5.2750   -0.0122    2.9172 C   0  0  0  0  0  0  0  0  0  0  0  0
    5.5121    0.0046    4.1183 O   0  0  0  0  0  0  0  0  0  0  0  0
    3.9587   -0.0049    2.5199 N   0  0  0  0  0  0  0  0  0  0  0  0
    2.8735    0.0202    3.3696 C   0  0  0  0  0  0  0  0  0  0  0  0
    1.7271    0.0101    2.5972 C   0  0  0  0  0  0  0  0  0  0  0  0
    0.3880    0.0199    3.1015 C   0  0  0  0  0  0  0  0  0  0  0  0
   -0.5072    0.0195    2.2581 O   0  0  0  0  0  0  0  0  0  0  0  0
    0.1365    0.0166    4.5367 C   0  0  0  0  0  0  0  0  0  0  0  0
   -1.0107   -0.5885    5.0561 C   0  0  0  0  0  0  0  0  0  0  0  0
   -1.2593   -0.5968    6.4366 C   0  0  0  0  0  0  0  0  0  0  0  0
   -0.3779   -0.0012    7.3521 C   0  0  0  0  0  0  0  0  0  0  0  0
   -0.6343   -0.0052    8.8158 C   0  0  0  0  0  0  0  0  0  0  0  0
   -0.7080   -1.3477    9.3451 N   0  0  0  0  0  0  0  0  0  0  0  0
    0.3479   -2.0809    9.8324 C   0  0  0  0  0  0  0  0  0  0  0  0
    1.7214   -1.5553    9.8650 C   0  0  0  0  0  0  0  0  0  0  0  0
   -0.0487   -3.2696   10.2430 N   0  0  0  0  0  0  0  0  0  0  0  0
   -1.4043   -3.3013   10.0202 C   0  0  0  0  0  0  0  0  0  0  0  0
   -2.3379   -4.3079   10.2678 C   0  0  0  0  0  0  0  0  0  0  0  0
   -3.6441   -4.1099    9.9612 N   0  0  0  0  0  0  0  0  0  0  0  0
   -4.0175   -2.9263    9.4151 C   0  0  0  0  0  0  0  0  0  0  0  0
   -3.1689   -1.8661    9.1304 C   0  0  0  0  0  0  0  0  0  0  0  0
   -1.8422   -2.1080    9.4585 C   0  0  0  0  0  0  0  0  0  0  0  0
    0.7598    0.6113    6.7921 C   0  0  0  0  0  0  0  0  0  0  0  0
    1.6335    1.2042    7.6204 F   0  0  0  0  0  0  0  0  0  0  0  0
    1.0256    0.6333    5.4161 C   0  0  0  0  0  0  0  0  0  0  0  0
    2.1265   -0.0000    1.2274 C   0  0  0  0  0  0  0  0  0  0  0  0
    1.4240    0.0000    0.0000 C   0  0  0  0  0  0  0  0  0  0  0  0
    2.1235    0.0018   -1.2160 C   0  0  0  0  0  0  0  0  0  0  0  0
    3.5182   -0.0152   -1.2061 C   0  0  0  0  0  0  0  0  0  0  0  0
    4.2378   -0.0123   -0.0068 C   0  0  0  0  0  0  0  0  0  0  0  0
    3.5251   -0.0013    1.2035 C   0  0  0  0  0  0  0  0  0  0  0  0
    0.0000    0.0000    0.0000 C   0  0  0  0  0  0  0  0  0  0  0  0
   -1.2008    0.0004   -0.0002 C   0  0  0  0  0  0  0  0  0  0  0  0
    8.1639    0.4889    1.4339 H   0  0  0  0  0  0  0  0  0  0  0  0
    7.9705   -1.2487    1.8195 H   0  0  0  0  0  0  0  0  0  0  0  0
    7.9297   -0.0425    3.1272 H   0  0  0  0  0  0  0  0  0  0  0  0
    6.2137    0.1596   -0.2030 H   0  0  0  0  0  0  0  0  0  0  0  0
    4.6045   -0.2090    0.4772 H   0  0  0  0  0  0  0  0  0  0  0  0
    5.8293   -1.5006    0.3469 H   0  0  0  0  0  0  0  0  0  0  0  0
    3.0172    0.0329    4.4407 H   0  0  0  0  0  0  0  0  0  0  0  0
   -1.7305   -1.0601    4.3911 H   0  0  0  0  0  0  0  0  0  0  0  0
   -2.1736   -1.0804    6.7716 H   0  0  0  0  0  0  0  0  0  0  0  0
   -1.5686    0.5213    9.0352 H   0  0  0  0  0  0  0  0  0  0  0  0
    0.1463    0.5275    9.3692 H   0  0  0  0  0  0  0  0  0  0  0  0
    2.4049   -2.2976   10.2877 H   0  0  0  0  0  0  0  0  0  0  0  0
    1.7782   -0.6416   10.4642 H   0  0  0  0  0  0  0  0  0  0  0  0
    2.0720   -1.3095    8.8571 H   0  0  0  0  0  0  0  0  0  0  0  0
   -2.0815   -5.2660   10.7022 H   0  0  0  0  0  0  0  0  0  0  0  0
   -5.0790   -2.8455    9.1985 H   0  0  0  0  0  0  0  0  0  0  0  0
   -3.5111   -0.9380    8.6935 H   0  0  0  0  0  0  0  0  0  0  0  0
    1.9184    1.1201    5.0307 H   0  0  0  0  0  0  0  0  0  0  0  0
    1.5817    0.0019   -2.1566 H   0  0  0  0  0  0  0  0  0  0  0  0
    4.0705   -0.0316   -2.1433 H   0  0  0  0  0  0  0  0  0  0  0  0
    5.3226   -0.0245   -0.0290 H   0  0  0  0  0  0  0  0  0  0  0  0
   -2.2657    0.0007   -0.0005 H   0  0  0  0  0  0  0  0  0  0  0  0
  1  2  1  0
  2  3  1  0
  2  4  1  0
  4  5  2  0
  4  6  1  0
  6  7  1  0
  7  8  2  0
  8  9  1  0
  9 10  2  0
  9 11  1  0
 11 12  2  0
 12 13  1  0
 13 14  2  0
 14 15  1  0
 15 16  1  0
 16 17  1  0
 17 18  1  0
 17 19  2  0
 19 20  1  0
 20 21  2  0
 21 22  1  0
 22 23  2  0
 23 24  1  0
 24 25  2  0
 14 26  1  0
 26 27  1  0
 26 28  2  0
  8 29  1  0
 29 30  2  0
 30 31  1  0
 31 32  2  0
 32 33  1  0
 33 34  2  0
 30 35  1  0
 35 36  3  0
 34  6  1  0
 28 11  1  0
 34 29  1  0
 25 16  1  0
 25 20  1  0
  1 37  1  0
  1 38  1  0
  1 39  1  0
  3 40  1  0
  3 41  1  0
  3 42  1  0
  7 43  1  0
 12 44  1  0
 13 45  1  0
 15 46  1  0
 15 47  1  0
 18 48  1  0
 18 49  1  0
 18 50  1  0
 21 51  1  0
 23 52  1  0
 24 53  1  0
 28 54  1  0
 31 55  1  0
 32 56  1  0
 33 57  1  0
 36 58  1  0
M  END
>  <_MoleculeID>  (285) 
smi31

>  <_InputIndex>  (285) 
31

>  <_InputSMILES>  (285) 
CN(C)C(=O)n1cc(C(=O)c2ccc(Cn3c(C)nc4cnccc34)c(F)c2)c2c(cccc12)C#C

>  <_InputInChIKey>  (285) 
GDLNHSUSOZEAOR-UHFFFAOYSA-N

>  <_SMILES>  (285) 
C#Cc1cccc2c1c(C(=O)c1ccc(Cn3c(C)nc4cnccc43)c(F)c1)cn2C(=O)N(C)C

>  <_InChIKey>  (285) 
GDLNHSUSOZEAOR-UHFFFAOYSA-N

$$$$
smi31_conf1
     RDKit          3D

 58 62  0  0  0  0  0  0  0  0999 V2000
    7.6644   -0.2329    2.0852 C   0  0  0  0  0  0  0  0  0  0  0  0
    6.2025   -0.1197    1.8723 N   0  0  0  0  0  0  0  0  0  0  0  0
    5.6726   -0.4353    0.5377 C   0  0  0  0  0  0  0  0  0  0  0  0
    5.2750   -0.0122    2.9172 C   0  0  0  0  0  0  0  0  0  0  0  0
    5.5121    0.0046    4.1183 O   0  0  0  0  0  0  0  0  0  0  0  0
    3.9587   -0.0049    2.5199 N   0  0  0  0  0  0  0  0  0  0  0  0
    2.8735    0.0202    3.3696 C   0  0  0  0  0  0  0  0  0  0  0  0
    1.7271    0.0101    2.5972 C   0  0  0  0  0  0  0  0  0  0  0  0
    0.3880    0.0199    3.1015 C   0  0  0  0  0  0  0  0  0  0  0  0
   -0.5072    0.0195    2.2581 O   0  0  0  0  0  0  0  0  0  0  0  0
    0.1365    0.0166    4.5367 C   0  0  0  0  0  0  0  0  0  0  0  0
   -1.0107   -0.5885    5.0561 C   0  0  0  0  0  0  0  0  0  0  0  0
   -1.2593   -0.5968    6.4366 C   0  0  0  0  0  0  0  0  0  0  0  0
   -0.3779   -0.0012    7.3521 C   0  0  0  0  0  0  0  0  0  0  0  0
   -0.6343   -0.0052    8.8158 C   0  0  0  0  0  0  0  0  0  0  0  0
   -1.8806    0.6477    9.1451 N   0  0  0  0  0  0  0  0  0  0  0  0
   -2.0410    1.9841    9.4251 C   0  0  0  0  0  0  0  0  0  0  0  0
   -0.9135    2.9288    9.4218 C   0  0  0  0  0  0  0  0  0  0  0  0
   -3.3025    2.2668    9.6849 N   0  0  0  0  0  0  0  0  0  0  0  0
   -3.9783    1.0766    9.5614 C   0  0  0  0  0  0  0  0  0  0  0  0
   -5.3333    0.7856    9.7204 C   0  0  0  0  0  0  0  0  0  0  0  0
   -5.7783   -0.4833    9.5438 N   0  0  0  0  0  0  0  0  0  0  0  0
   -4.8876   -1.4508    9.2136 C   0  0  0  0  0  0  0  0  0  0  0  0
   -3.5244   -1.2645    9.0334 C   0  0  0  0  0  0  0  0  0  0  0  0
   -3.1093    0.0463    9.2228 C   0  0  0  0  0  0  0  0  0  0  0  0
    0.7598    0.6113    6.7921 C   0  0  0  0  0  0  0  0  0  0  0  0
    1.6335    1.2042    7.6204 F   0  0  0  0  0  0  0  0  0  0  0  0
    1.0256    0.6333    5.4161 C   0  0  0  0  0  0  0  0  0  0  0  0
    2.1265    0.0000    1.2274 C   0  0  0  0  0  0  0  0  0  0  0  0
    1.4240    0.0000    0.0000 C   0  0  0  0  0  0  0  0  0  0  0  0
    2.1235    0.0018   -1.2160 C   0  0  0  0  0  0  0  0  0  0  0  0
    3.5182   -0.0152   -1.2061 C   0  0  0  0  0  0  0  0  0  0  0  0
    4.2378   -0.0123   -0.0068 C   0  0  0  0  0  0  0  0  0  0  0  0
    3.5251   -0.0013    1.2035 C   0  0  0  0  0  0  0  0  0  0  0  0
    0.0000    0.0000    0.0000 C   0  0  0  0  0  0  0  0  0  0  0  0
   -1.2008    0.0004   -0.0002 C   0  0  0  0  0  0  0  0  0  0  0  0
    8.1639    0.4889    1.4339 H   0  0  0  0  0  0  0  0  0  0  0  0
    7.9705   -1.2487    1.8195 H   0  0  0  0  0  0  0  0  0  0  0  0
    7.9297   -0.0425    3.1272 H   0  0  0  0  0  0  0  0  0  0  0  0
    6.2137    0.1596   -0.2030 H   0  0  0  0  0  0  0  0  0  0  0  0
    4.6045   -0.2090    0.4772 H   0  0  0  0  0  0  0  0  0  0  0  0
    5.8293   -1.5006    0.3469 H   0  0  0  0  0  0  0  0  0  0  0  0
    3.0172    0.0329    4.4407 H   0  0  0  0  0  0  0  0  0  0  0  0
   -1.7305   -1.0601    4.3911 H   0  0  0  0  0  0  0  0  0  0  0  0
   -2.1736   -1.0804    6.7716 H   0  0  0  0  0  0  0  0  0  0  0  0
    0.1852    0.4943    9.3423 H   0  0  0  0  0  0  0  0  0  0  0  0
   -0.6748   -1.0217    9.2212 H   0  0  0  0  0  0  0  0  0  0  0  0
   -1.2584    3.9367    9.6707 H   0  0  0  0  0  0  0  0  0  0  0  0
   -0.4255    2.9545    8.4428 H   0  0  0  0  0  0  0  0  0  0  0  0
   -0.1566    2.6398   10.1585 H   0  0  0  0  0  0  0  0  0  0  0  0
   -6.0764    1.5281    9.9829 H   0  0  0  0  0  0  0  0  0  0  0  0
   -5.3216   -2.4390    9.0900 H   0  0  0  0  0  0  0  0  0  0  0  0
   -2.8495   -2.0672    8.7698 H   0  0  0  0  0  0  0  0  0  0  0  0
    1.9184    1.1201    5.0307 H   0  0  0  0  0  0  0  0  0  0  0  0
    1.5817    0.0019   -2.1566 H   0  0  0  0  0  0  0  0  0  0  0  0
    4.0705   -0.0316   -2.1433 H   0  0  0  0  0  0  0  0  0  0  0  0
    5.3226   -0.0245   -0.0290 H   0  0  0  0  0  0  0  0  0  0  0  0
   -2.2657    0.0007   -0.0005 H   0  0  0  0  0  0  0  0  0  0  0  0
  1  2  1  0
  2  3  1  0
  2  4  1  0
  4  5  2  0
  4  6  1  0
  6  7  1  0
  7  8  2  0
  8  9  1  0
  9 10  2  0
  9 11  1  0
 11 12  2  0
 12 13  1  0
 13 14  2  0
 14 15  1  0
 15 16  1  0
 16 17  1  0
 17 18  1  0
 17 19  2  0
 19 20  1  0
 20 21  2  0
 21 22  1  0
 22 23  2  0
 23 24  1  0
 24 25  2  0
 14 26  1  0
 26 27  1  0
 26 28  2  0
  8 29  1  0
 29 30  2  0
 30 31  1  0
 31 32  2  0
 32 33  1  0
 33 34  2  0
 30 35  1  0
 35 36  3  0
 34  6  1  0
 28 11  1  0
 34 29  1  0
 25 16  1  0
 25 20  1  0
  1 37  1  0
  1 38  1  0
  1 39  1  0
  3 40  1  0
  3 41  1  0
  3 42  1  0
  7 43  1  0
 12 44  1  0
 13 45  1  0
 15 46  1  0
 15 47  1  0
 18 48  1  0
 18 49  1  0
 18 50  1  0
 21 51  1  0
 23 52  1  0
 24 53  1  0
 28 54  1  0
 31 55  1  0
 32 56  1  0
 33 57  1  0
 36 58  1  0
M  END
>  <_MoleculeID>  (286) 
smi31

>  <_InputIndex>  (286) 
31

>  <_InputSMILES>  (286) 
CN(C)C(=O)n1cc(C(=O)c2ccc(Cn3c(C)nc4cnccc34)c(F)c2)c2c(cccc12)C#C

>  <_InputInChIKey>  (286) 
GDLNHSUSOZEAOR-UHFFFAOYSA-N

>  <_SMILES>  (286) 
C#Cc1cccc2c1c(C(=O)c1ccc(Cn3c(C)nc4cnccc43)c(F)c1)cn2C(=O)N(C)C

>  <_InChIKey>  (286) 
GDLNHSUSOZEAOR-UHFFFAOYSA-N

$$$$
smi31_conf2
     RDKit          3D

 58 62  0  0  0  0  0  0  0  0999 V2000
    7.6644   -0.2329    2.0852 C   0  0  0  0  0  0  0  0  0  0  0  0
    6.2025   -0.1197    1.8723 N   0  0  0  0  0  0  0  0  0  0  0  0
    5.6726   -0.4353    0.5377 C   0  0  0  0  0  0  0  0  0  0  0  0
    5.2750   -0.0122    2.9172 C   0  0  0  0  0  0  0  0  0  0  0  0
    5.5121    0.0046    4.1183 O   0  0  0  0  0  0  0  0  0  0  0  0
    3.9587   -0.0049    2.5199 N   0  0  0  0  0  0  0  0  0  0  0  0
    2.8735    0.0202    3.3696 C   0  0  0  0  0  0  0  0  0  0  0  0
    1.7271    0.0101    2.5972 C   0  0  0  0  0  0  0  0  0  0  0  0
    0.3880    0.0199    3.1015 C   0  0  0  0  0  0  0  0  0  0  0  0
   -0.5072    0.0195    2.2581 O   0  0  0  0  0  0  0  0  0  0  0  0
    0.1365    0.0166    4.5367 C   0  0  0  0  0  0  0  0  0  0  0  0
    1.0383    0.6183    5.4180 C   0  0  0  0  0  0  0  0  0  0  0  0
    0.8028    0.6200    6.8008 C   0  0  0  0  0  0  0  0  0  0  0  0
   -0.3369    0.0210    7.3594 C   0  0  0  0  0  0  0  0  0  0  0  0
   -0.5934    0.0181    8.8230 C   0  0  0  0  0  0  0  0  0  0  0  0
   -0.7052    1.3581    9.3520 N   0  0  0  0  0  0  0  0  0  0  0  0
   -1.8644    2.0899    9.4547 C   0  0  0  0  0  0  0  0  0  0  0  0
   -3.1668    1.5652    9.0159 C   0  0  0  0  0  0  0  0  0  0  0  0
   -1.6320    3.2764    9.9810 N   0  0  0  0  0  0  0  0  0  0  0  0
   -0.2814    3.3081   10.2325 C   0  0  0  0  0  0  0  0  0  0  0  0
    0.5116    4.3127   10.7874 C   0  0  0  0  0  0  0  0  0  0  0  0
    1.8444    4.1151   10.9423 N   0  0  0  0  0  0  0  0  0  0  0  0
    2.3822    2.9337   10.5502 C   0  0  0  0  0  0  0  0  0  0  0  0
    1.6817    1.8755    9.9891 C   0  0  0  0  0  0  0  0  0  0  0  0
    0.3223    2.1170    9.8477 C   0  0  0  0  0  0  0  0  0  0  0  0
   -1.2160   -0.5880    6.4431 C   0  0  0  0  0  0  0  0  0  0  0  0
   -2.3187   -1.1840    6.9223 F   0  0  0  0  0  0  0  0  0  0  0  0
   -0.9981   -0.6035    5.0586 C   0  0  0  0  0  0  0  0  0  0  0  0
    2.1265    0.0000    1.2274 C   0  0  0  0  0  0  0  0  0  0  0  0
    1.4240    0.0000    0.0000 C   0  0  0  0  0  0  0  0  0  0  0  0
    2.1235    0.0018   -1.2160 C   0  0  0  0  0  0  0  0  0  0  0  0
    3.5182   -0.0152   -1.2061 C   0  0  0  0  0  0  0  0  0  0  0  0
    4.2378   -0.0123   -0.0068 C   0  0  0  0  0  0  0  0  0  0  0  0
    3.5251   -0.0013    1.2035 C   0  0  0  0  0  0  0  0  0  0  0  0
    0.0000    0.0000    0.0000 C   0  0  0  0  0  0  0  0  0  0  0  0
   -1.2008    0.0004   -0.0002 C   0  0  0  0  0  0  0  0  0  0  0  0
    8.1639    0.4889    1.4339 H   0  0  0  0  0  0  0  0  0  0  0  0
    7.9705   -1.2487    1.8195 H   0  0  0  0  0  0  0  0  0  0  0  0
    7.9297   -0.0425    3.1272 H   0  0  0  0  0  0  0  0  0  0  0  0
    6.2137    0.1596   -0.2030 H   0  0  0  0  0  0  0  0  0  0  0  0
    4.6045   -0.2090    0.4772 H   0  0  0  0  0  0  0  0  0  0  0  0
    5.8293   -1.5006    0.3469 H   0  0  0  0  0  0  0  0  0  0  0  0
    3.0172    0.0329    4.4407 H   0  0  0  0  0  0  0  0  0  0  0  0
    1.9409    1.0924    5.0395 H   0  0  0  0  0  0  0  0  0  0  0  0
    1.5483    1.1014    7.4289 H   0  0  0  0  0  0  0  0  0  0  0  0
    0.2111   -0.5102    9.3446 H   0  0  0  0  0  0  0  0  0  0  0  0
   -1.5152   -0.5165    9.0756 H   0  0  0  0  0  0  0  0  0  0  0  0
   -3.9538    2.3061    9.1844 H   0  0  0  0  0  0  0  0  0  0  0  0
   -3.4231    0.6488    9.5559 H   0  0  0  0  0  0  0  0  0  0  0  0
   -3.1536    1.3243    7.9478 H   0  0  0  0  0  0  0  0  0  0  0  0
    0.1220    5.2690   11.1132 H   0  0  0  0  0  0  0  0  0  0  0  0
    3.4541    2.8531   10.7071 H   0  0  0  0  0  0  0  0  0  0  0  0
    2.1529    0.9491    9.6903 H   0  0  0  0  0  0  0  0  0  0  0  0
   -1.7063   -1.0879    4.3904 H   0  0  0  0  0  0  0  0  0  0  0  0
    1.5817    0.0019   -2.1566 H   0  0  0  0  0  0  0  0  0  0  0  0
    4.0705   -0.0316   -2.1433 H   0  0  0  0  0  0  0  0  0  0  0  0
    5.3226   -0.0245   -0.0290 H   0  0  0  0  0  0  0  0  0  0  0  0
   -2.2657    0.0007   -0.0005 H   0  0  0  0  0  0  0  0  0  0  0  0
  1  2  1  0
  2  3  1  0
  2  4  1  0
  4  5  2  0
  4  6  1  0
  6  7  1  0
  7  8  2  0
  8  9  1  0
  9 10  2  0
  9 11  1  0
 11 12  2  0
 12 13  1  0
 13 14  2  0
 14 15  1  0
 15 16  1  0
 16 17  1  0
 17 18  1  0
 17 19  2  0
 19 20  1  0
 20 21  2  0
 21 22  1  0
 22 23  2  0
 23 24  1  0
 24 25  2  0
 14 26  1  0
 26 27  1  0
 26 28  2  0
  8 29  1  0
 29 30  2  0
 30 31  1  0
 31 32  2  0
 32 33  1  0
 33 34  2  0
 30 35  1  0
 35 36  3  0
 34  6  1  0
 28 11  1  0
 34 29  1  0
 25 16  1  0
 25 20  1  0
  1 37  1  0
  1 38  1  0
  1 39  1  0
  3 40  1  0
  3 41  1  0
  3 42  1  0
  7 43  1  0
 12 44  1  0
 13 45  1  0
 15 46  1  0
 15 47  1  0
 18 48  1  0
 18 49  1  0
 18 50  1  0
 21 51  1  0
 23 52  1  0
 24 53  1  0
 28 54  1  0
 31 55  1  0
 32 56  1  0
 33 57  1  0
 36 58  1  0
M  END
>  <_MoleculeID>  (287) 
smi31

>  <_InputIndex>  (287) 
31

>  <_InputSMILES>  (287) 
CN(C)C(=O)n1cc(C(=O)c2ccc(Cn3c(C)nc4cnccc34)c(F)c2)c2c(cccc12)C#C

>  <_InputInChIKey>  (287) 
GDLNHSUSOZEAOR-UHFFFAOYSA-N

>  <_SMILES>  (287) 
C#Cc1cccc2c1c(C(=O)c1ccc(Cn3c(C)nc4cnccc43)c(F)c1)cn2C(=O)N(C)C

>  <_InChIKey>  (287) 
GDLNHSUSOZEAOR-UHFFFAOYSA-N

$$$$
smi31_conf3
     RDKit          3D

 58 62  0  0  0  0  0  0  0  0999 V2000
    7.6644   -0.2329    2.0852 C   0  0  0  0  0  0  0  0  0  0  0  0
    6.2025   -0.1197    1.8723 N   0  0  0  0  0  0  0  0  0  0  0  0
    5.6726   -0.4353    0.5377 C   0  0  0  0  0  0  0  0  0  0  0  0
    5.2750   -0.0122    2.9172 C   0  0  0  0  0  0  0  0  0  0  0  0
    5.5121    0.0046    4.1183 O   0  0  0  0  0  0  0  0  0  0  0  0
    3.9587   -0.0049    2.5199 N   0  0  0  0  0  0  0  0  0  0  0  0
    2.8735    0.0202    3.3696 C   0  0  0  0  0  0  0  0  0  0  0  0
    1.7271    0.0101    2.5972 C   0  0  0  0  0  0  0  0  0  0  0  0
    0.3880    0.0199    3.1015 C   0  0  0  0  0  0  0  0  0  0  0  0
   -0.5072    0.0195    2.2581 O   0  0  0  0  0  0  0  0  0  0  0  0
    0.1365    0.0166    4.5367 C   0  0  0  0  0  0  0  0  0  0  0  0
   -1.0107   -0.5885    5.0561 C   0  0  0  0  0  0  0  0  0  0  0  0
   -1.2593   -0.5968    6.4366 C   0  0  0  0  0  0  0  0  0  0  0  0
   -0.3779   -0.0012    7.3521 C   0  0  0  0  0  0  0  0  0  0  0  0
   -0.6343   -0.0052    8.8158 C   0  0  0  0  0  0  0  0  0  0  0  0
   -1.1968    1.2472    9.2665 N   0  0  0  0  0  0  0  0  0  0  0  0
   -2.5359    1.5501    9.3372 C   0  0  0  0  0  0  0  0  0  0  0  0
   -3.5805    0.5927    8.9422 C   0  0  0  0  0  0  0  0  0  0  0  0
   -2.7226    2.7741    9.7910 N   0  0  0  0  0  0  0  0  0  0  0  0
   -1.4645    3.2737   10.0275 C   0  0  0  0  0  0  0  0  0  0  0  0
   -1.0625    4.5173   10.5152 C   0  0  0  0  0  0  0  0  0  0  0  0
    0.2572    4.7898   10.6687 N   0  0  0  0  0  0  0  0  0  0  0  0
    1.1659    3.8381   10.3414 C   0  0  0  0  0  0  0  0  0  0  0  0
    0.8691    2.5749    9.8498 C   0  0  0  0  0  0  0  0  0  0  0  0
   -0.4906    2.3355    9.7073 C   0  0  0  0  0  0  0  0  0  0  0  0
    0.7598    0.6113    6.7921 C   0  0  0  0  0  0  0  0  0  0  0  0
    1.6335    1.2042    7.6204 F   0  0  0  0  0  0  0  0  0  0  0  0
    1.0256    0.6333    5.4161 C   0  0  0  0  0  0  0  0  0  0  0  0
    2.1265    0.0000    1.2274 C   0  0  0  0  0  0  0  0  0  0  0  0
    1.4240    0.0000    0.0000 C   0  0  0  0  0  0  0  0  0  0  0  0
    2.1235    0.0018   -1.2160 C   0  0  0  0  0  0  0  0  0  0  0  0
    3.5182   -0.0152   -1.2061 C   0  0  0  0  0  0  0  0  0  0  0  0
    4.2378   -0.0123   -0.0068 C   0  0  0  0  0  0  0  0  0  0  0  0
    3.5251   -0.0013    1.2035 C   0  0  0  0  0  0  0  0  0  0  0  0
    0.0000    0.0000    0.0000 C   0  0  0  0  0  0  0  0  0  0  0  0
   -1.2008    0.0004   -0.0002 C   0  0  0  0  0  0  0  0  0  0  0  0
    8.1639    0.4889    1.4339 H   0  0  0  0  0  0  0  0  0  0  0  0
    7.9705   -1.2487    1.8195 H   0  0  0  0  0  0  0  0  0  0  0  0
    7.9297   -0.0425    3.1272 H   0  0  0  0  0  0  0  0  0  0  0  0
    6.2137    0.1596   -0.2030 H   0  0  0  0  0  0  0  0  0  0  0  0
    4.6045   -0.2090    0.4772 H   0  0  0  0  0  0  0  0  0  0  0  0
    5.8293   -1.5006    0.3469 H   0  0  0  0  0  0  0  0  0  0  0  0
    3.0172    0.0329    4.4407 H   0  0  0  0  0  0  0  0  0  0  0  0
   -1.7305   -1.0601    4.3911 H   0  0  0  0  0  0  0  0  0  0  0  0
   -2.1736   -1.0804    6.7716 H   0  0  0  0  0  0  0  0  0  0  0  0
    0.2954   -0.2000    9.3597 H   0  0  0  0  0  0  0  0  0  0  0  0
   -1.3247   -0.8035    9.1079 H   0  0  0  0  0  0  0  0  0  0  0  0
   -4.5729    1.0334    9.0745 H   0  0  0  0  0  0  0  0  0  0  0  0
   -3.5188   -0.3234    9.5373 H   0  0  0  0  0  0  0  0  0  0  0  0
   -3.4753    0.3085    7.8899 H   0  0  0  0  0  0  0  0  0  0  0  0
   -1.7551    5.3036   10.7881 H   0  0  0  0  0  0  0  0  0  0  0  0
    2.2005    4.1327   10.4925 H   0  0  0  0  0  0  0  0  0  0  0  0
    1.6280    1.8458    9.6012 H   0  0  0  0  0  0  0  0  0  0  0  0
    1.9184    1.1201    5.0307 H   0  0  0  0  0  0  0  0  0  0  0  0
    1.5817    0.0019   -2.1566 H   0  0  0  0  0  0  0  0  0  0  0  0
    4.0705   -0.0316   -2.1433 H   0  0  0  0  0  0  0  0  0  0  0  0
    5.3226   -0.0245   -0.0290 H   0  0  0  0  0  0  0  0  0  0  0  0
   -2.2657    0.0007   -0.0005 H   0  0  0  0  0  0  0  0  0  0  0  0
  1  2  1  0
  2  3  1  0
  2  4  1  0
  4  5  2  0
  4  6  1  0
  6  7  1  0
  7  8  2  0
  8  9  1  0
  9 10  2  0
  9 11  1  0
 11 12  2  0
 12 13  1  0
 13 14  2  0
 14 15  1  0
 15 16  1  0
 16 17  1  0
 17 18  1  0
 17 19  2  0
 19 20  1  0
 20 21  2  0
 21 22  1  0
 22 23  2  0
 23 24  1  0
 24 25  2  0
 14 26  1  0
 26 27  1  0
 26 28  2  0
  8 29  1  0
 29 30  2  0
 30 31  1  0
 31 32  2  0
 32 33  1  0
 33 34  2  0
 30 35  1  0
 35 36  3  0
 34  6  1  0
 28 11  1  0
 34 29  1  0
 25 16  1  0
 25 20  1  0
  1 37  1  0
  1 38  1  0
  1 39  1  0
  3 40  1  0
  3 41  1  0
  3 42  1  0
  7 43  1  0
 12 44  1  0
 13 45  1  0
 15 46  1  0
 15 47  1  0
 18 48  1  0
 18 49  1  0
 18 50  1  0
 21 51  1  0
 23 52  1  0
 24 53  1  0
 28 54  1  0
 31 55  1  0
 32 56  1  0
 33 57  1  0
 36 58  1  0
M  END
>  <_MoleculeID>  (288) 
smi31

>  <_InputIndex>  (288) 
31

>  <_InputSMILES>  (288) 
CN(C)C(=O)n1cc(C(=O)c2ccc(Cn3c(C)nc4cnccc34)c(F)c2)c2c(cccc12)C#C

>  <_InputInChIKey>  (288) 
GDLNHSUSOZEAOR-UHFFFAOYSA-N

>  <_SMILES>  (288) 
C#Cc1cccc2c1c(C(=O)c1ccc(Cn3c(C)nc4cnccc43)c(F)c1)cn2C(=O)N(C)C

>  <_InChIKey>  (288) 
GDLNHSUSOZEAOR-UHFFFAOYSA-N

$$$$
smi31_conf4
     RDKit          3D

 58 62  0  0  0  0  0  0  0  0999 V2000
    7.6644   -0.2329    2.0852 C   0  0  0  0  0  0  0  0  0  0  0  0
    6.2025   -0.1197    1.8723 N   0  0  0  0  0  0  0  0  0  0  0  0
    5.6726   -0.4353    0.5377 C   0  0  0  0  0  0  0  0  0  0  0  0
    5.2750   -0.0122    2.9172 C   0  0  0  0  0  0  0  0  0  0  0  0
    5.5121    0.0046    4.1183 O   0  0  0  0  0  0  0  0  0  0  0  0
    3.9587   -0.0049    2.5199 N   0  0  0  0  0  0  0  0  0  0  0  0
    2.8735    0.0202    3.3696 C   0  0  0  0  0  0  0  0  0  0  0  0
    1.7271    0.0101    2.5972 C   0  0  0  0  0  0  0  0  0  0  0  0
    0.3880    0.0199    3.1015 C   0  0  0  0  0  0  0  0  0  0  0  0
   -0.5072    0.0195    2.2581 O   0  0  0  0  0  0  0  0  0  0  0  0
    0.1365    0.0166    4.5367 C   0  0  0  0  0  0  0  0  0  0  0  0
   -1.0107   -0.5885    5.0561 C   0  0  0  0  0  0  0  0  0  0  0  0
   -1.2593   -0.5968    6.4366 C   0  0  0  0  0  0  0  0  0  0  0  0
   -0.3779   -0.0012    7.3521 C   0  0  0  0  0  0  0  0  0  0  0  0
   -0.6343   -0.0052    8.8158 C   0  0  0  0  0  0  0  0  0  0  0  0
   -1.8615   -0.6934    9.1448 N   0  0  0  0  0  0  0  0  0  0  0  0
   -1.9838   -2.0339    9.4242 C   0  0  0  0  0  0  0  0  0  0  0  0
   -0.8308   -2.9474    9.4142 C   0  0  0  0  0  0  0  0  0  0  0  0
   -3.2362   -2.3519    9.6872 N   0  0  0  0  0  0  0  0  0  0  0  0
   -3.9428   -1.1781    9.5813 C   0  0  0  0  0  0  0  0  0  0  0  0
   -5.3029   -0.9225    9.7577 C   0  0  0  0  0  0  0  0  0  0  0  0
   -5.7811    0.3366    9.5990 N   0  0  0  0  0  0  0  0  0  0  0  0
   -4.9183    1.3292    9.2689 C   0  0  0  0  0  0  0  0  0  0  0  0
   -3.5532    1.1785    9.0714 C   0  0  0  0  0  0  0  0  0  0  0  0
   -3.1036   -0.1234    9.2429 C   0  0  0  0  0  0  0  0  0  0  0  0
    0.7598    0.6113    6.7921 C   0  0  0  0  0  0  0  0  0  0  0  0
    1.6335    1.2042    7.6204 F   0  0  0  0  0  0  0  0  0  0  0  0
    1.0256    0.6333    5.4161 C   0  0  0  0  0  0  0  0  0  0  0  0
    2.1265   -0.0000    1.2274 C   0  0  0  0  0  0  0  0  0  0  0  0
    1.4240    0.0000    0.0000 C   0  0  0  0  0  0  0  0  0  0  0  0
    2.1235    0.0018   -1.2160 C   0  0  0  0  0  0  0  0  0  0  0  0
    3.5182   -0.0152   -1.2061 C   0  0  0  0  0  0  0  0  0  0  0  0
    4.2378   -0.0123   -0.0068 C   0  0  0  0  0  0  0  0  0  0  0  0
    3.5251   -0.0013    1.2035 C   0  0  0  0  0  0  0  0  0  0  0  0
    0.0000    0.0000    0.0000 C   0  0  0  0  0  0  0  0  0  0  0  0
   -1.2008    0.0004   -0.0002 C   0  0  0  0  0  0  0  0  0  0  0  0
    8.1639    0.4889    1.4339 H   0  0  0  0  0  0  0  0  0  0  0  0
    7.9705   -1.2487    1.8195 H   0  0  0  0  0  0  0  0  0  0  0  0
    7.9297   -0.0425    3.1272 H   0  0  0  0  0  0  0  0  0  0  0  0
    6.2137    0.1596   -0.2030 H   0  0  0  0  0  0  0  0  0  0  0  0
    4.6045   -0.2090    0.4772 H   0  0  0  0  0  0  0  0  0  0  0  0
    5.8293   -1.5006    0.3469 H   0  0  0  0  0  0  0  0  0  0  0  0
    3.0172    0.0329    4.4407 H   0  0  0  0  0  0  0  0  0  0  0  0
   -1.7305   -1.0601    4.3911 H   0  0  0  0  0  0  0  0  0  0  0  0
   -2.1736   -1.0804    6.7716 H   0  0  0  0  0  0  0  0  0  0  0  0
   -0.6843    1.0218    9.1914 H   0  0  0  0  0  0  0  0  0  0  0  0
    0.1764   -0.4879    9.3717 H   0  0  0  0  0  0  0  0  0  0  0  0
   -1.1472   -3.9651    9.6610 H   0  0  0  0  0  0  0  0  0  0  0  0
   -0.0714   -2.6292   10.1349 H   0  0  0  0  0  0  0  0  0  0  0  0
   -0.3572   -2.9715    8.4271 H   0  0  0  0  0  0  0  0  0  0  0  0
   -6.0242   -1.6857   10.0214 H   0  0  0  0  0  0  0  0  0  0  0  0
   -5.3780    2.3074    9.1601 H   0  0  0  0  0  0  0  0  0  0  0  0
   -2.9014    2.0002    8.8083 H   0  0  0  0  0  0  0  0  0  0  0  0
    1.9184    1.1201    5.0307 H   0  0  0  0  0  0  0  0  0  0  0  0
    1.5817    0.0019   -2.1566 H   0  0  0  0  0  0  0  0  0  0  0  0
    4.0705   -0.0316   -2.1433 H   0  0  0  0  0  0  0  0  0  0  0  0
    5.3226   -0.0245   -0.0290 H   0  0  0  0  0  0  0  0  0  0  0  0
   -2.2657    0.0007   -0.0005 H   0  0  0  0  0  0  0  0  0  0  0  0
  1  2  1  0
  2  3  1  0
  2  4  1  0
  4  5  2  0
  4  6  1  0
  6  7  1  0
  7  8  2  0
  8  9  1  0
  9 10  2  0
  9 11  1  0
 11 12  2  0
 12 13  1  0
 13 14  2  0
 14 15  1  0
 15 16  1  0
 16 17  1  0
 17 18  1  0
 17 19  2  0
 19 20  1  0
 20 21  2  0
 21 22  1  0
 22 23  2  0
 23 24  1  0
 24 25  2  0
 14 26  1  0
 26 27  1  0
 26 28  2  0
  8 29  1  0
 29 30  2  0
 30 31  1  0
 31 32  2  0
 32 33  1  0
 33 34  2  0
 30 35  1  0
 35 36  3  0
 34  6  1  0
 28 11  1  0
 34 29  1  0
 25 16  1  0
 25 20  1  0
  1 37  1  0
  1 38  1  0
  1 39  1  0
  3 40  1  0
  3 41  1  0
  3 42  1  0
  7 43  1  0
 12 44  1  0
 13 45  1  0
 15 46  1  0
 15 47  1  0
 18 48  1  0
 18 49  1  0
 18 50  1  0
 21 51  1  0
 23 52  1  0
 24 53  1  0
 28 54  1  0
 31 55  1  0
 32 56  1  0
 33 57  1  0
 36 58  1  0
M  END
>  <_MoleculeID>  (289) 
smi31

>  <_InputIndex>  (289) 
31

>  <_InputSMILES>  (289) 
CN(C)C(=O)n1cc(C(=O)c2ccc(Cn3c(C)nc4cnccc34)c(F)c2)c2c(cccc12)C#C

>  <_InputInChIKey>  (289) 
GDLNHSUSOZEAOR-UHFFFAOYSA-N

>  <_SMILES>  (289) 
C#Cc1cccc2c1c(C(=O)c1ccc(Cn3c(C)nc4cnccc43)c(F)c1)cn2C(=O)N(C)C

>  <_InChIKey>  (289) 
GDLNHSUSOZEAOR-UHFFFAOYSA-N

$$$$
smi31_conf5
     RDKit          3D

 58 62  0  0  0  0  0  0  0  0999 V2000
    7.6644   -0.2329    2.0852 C   0  0  0  0  0  0  0  0  0  0  0  0
    6.2025   -0.1197    1.8723 N   0  0  0  0  0  0  0  0  0  0  0  0
    5.6726   -0.4353    0.5377 C   0  0  0  0  0  0  0  0  0  0  0  0
    5.2750   -0.0122    2.9172 C   0  0  0  0  0  0  0  0  0  0  0  0
    5.5121    0.0046    4.1183 O   0  0  0  0  0  0  0  0  0  0  0  0
    3.9587   -0.0049    2.5199 N   0  0  0  0  0  0  0  0  0  0  0  0
    2.8735    0.0202    3.3696 C   0  0  0  0  0  0  0  0  0  0  0  0
    1.7271    0.0101    2.5972 C   0  0  0  0  0  0  0  0  0  0  0  0
    0.3880    0.0199    3.1015 C   0  0  0  0  0  0  0  0  0  0  0  0
   -0.5072    0.0195    2.2581 O   0  0  0  0  0  0  0  0  0  0  0  0
    0.1365    0.0166    4.5367 C   0  0  0  0  0  0  0  0  0  0  0  0
   -1.0135    0.6142    5.0585 C   0  0  0  0  0  0  0  0  0  0  0  0
   -1.2632    0.6142    6.4388 C   0  0  0  0  0  0  0  0  0  0  0  0
   -0.3771    0.0224    7.3523 C   0  0  0  0  0  0  0  0  0  0  0  0
   -0.6340    0.0186    8.8159 C   0  0  0  0  0  0  0  0  0  0  0  0
   -0.7460    1.3584    9.3456 N   0  0  0  0  0  0  0  0  0  0  0  0
    0.2884    2.1211    9.8335 C   0  0  0  0  0  0  0  0  0  0  0  0
    1.6753    1.6324    9.8723 C   0  0  0  0  0  0  0  0  0  0  0  0
   -0.1415    3.2992   10.2412 N   0  0  0  0  0  0  0  0  0  0  0  0
   -1.4946    3.2990   10.0018 C   0  0  0  0  0  0  0  0  0  0  0  0
   -2.4538    4.2852   10.2331 C   0  0  0  0  0  0  0  0  0  0  0  0
   -3.7510    4.0569    9.9097 N   0  0  0  0  0  0  0  0  0  0  0  0
   -4.0904    2.8632    9.3634 C   0  0  0  0  0  0  0  0  0  0  0  0
   -3.2146    1.8210    9.0950 C   0  0  0  0  0  0  0  0  0  0  0  0
   -1.8982    2.0938    9.4399 C   0  0  0  0  0  0  0  0  0  0  0  0
    0.7778   -0.5573    6.7925 C   0  0  0  0  0  0  0  0  0  0  0  0
    1.6648   -1.1307    7.6204 F   0  0  0  0  0  0  0  0  0  0  0  0
    1.0475   -0.5658    5.4171 C   0  0  0  0  0  0  0  0  0  0  0  0
    2.1265    0.0000    1.2274 C   0  0  0  0  0  0  0  0  0  0  0  0
    1.4240    0.0000    0.0000 C   0  0  0  0  0  0  0  0  0  0  0  0
    2.1235    0.0018   -1.2160 C   0  0  0  0  0  0  0  0  0  0  0  0
    3.5182   -0.0152   -1.2061 C   0  0  0  0  0  0  0  0  0  0  0  0
    4.2378   -0.0123   -0.0068 C   0  0  0  0  0  0  0  0  0  0  0  0
    3.5251   -0.0013    1.2035 C   0  0  0  0  0  0  0  0  0  0  0  0
    0.0000    0.0000    0.0000 C   0  0  0  0  0  0  0  0  0  0  0  0
   -1.2008    0.0004   -0.0002 C   0  0  0  0  0  0  0  0  0  0  0  0
    8.1639    0.4889    1.4339 H   0  0  0  0  0  0  0  0  0  0  0  0
    7.9705   -1.2487    1.8195 H   0  0  0  0  0  0  0  0  0  0  0  0
    7.9297   -0.0425    3.1272 H   0  0  0  0  0  0  0  0  0  0  0  0
    6.2137    0.1596   -0.2030 H   0  0  0  0  0  0  0  0  0  0  0  0
    4.6045   -0.2090    0.4772 H   0  0  0  0  0  0  0  0  0  0  0  0
    5.8293   -1.5006    0.3469 H   0  0  0  0  0  0  0  0  0  0  0  0
    3.0172    0.0329    4.4407 H   0  0  0  0  0  0  0  0  0  0  0  0
   -1.7314    1.0924    4.3961 H   0  0  0  0  0  0  0  0  0  0  0  0
   -2.1744    1.1016    6.7766 H   0  0  0  0  0  0  0  0  0  0  0  0
    0.1704   -0.5098    9.3373 H   0  0  0  0  0  0  0  0  0  0  0  0
   -1.5558   -0.5162    9.0680 H   0  0  0  0  0  0  0  0  0  0  0  0
    2.3370    2.3931   10.2971 H   0  0  0  0  0  0  0  0  0  0  0  0
    2.0297    1.3766    8.8692 H   0  0  0  0  0  0  0  0  0  0  0  0
    1.7573    0.7315   10.4894 H   0  0  0  0  0  0  0  0  0  0  0  0
   -2.2247    5.2506   10.6666 H   0  0  0  0  0  0  0  0  0  0  0  0
   -5.1468    2.7579    9.1329 H   0  0  0  0  0  0  0  0  0  0  0  0
   -3.5301    0.8837    8.6575 H   0  0  0  0  0  0  0  0  0  0  0  0
    1.9546   -1.0257    5.0319 H   0  0  0  0  0  0  0  0  0  0  0  0
    1.5817    0.0019   -2.1566 H   0  0  0  0  0  0  0  0  0  0  0  0
    4.0705   -0.0316   -2.1433 H   0  0  0  0  0  0  0  0  0  0  0  0
    5.3226   -0.0245   -0.0290 H   0  0  0  0  0  0  0  0  0  0  0  0
   -2.2657    0.0007   -0.0005 H   0  0  0  0  0  0  0  0  0  0  0  0
  1  2  1  0
  2  3  1  0
  2  4  1  0
  4  5  2  0
  4  6  1  0
  6  7  1  0
  7  8  2  0
  8  9  1  0
  9 10  2  0
  9 11  1  0
 11 12  2  0
 12 13  1  0
 13 14  2  0
 14 15  1  0
 15 16  1  0
 16 17  1  0
 17 18  1  0
 17 19  2  0
 19 20  1  0
 20 21  2  0
 21 22  1  0
 22 23  2  0
 23 24  1  0
 24 25  2  0
 14 26  1  0
 26 27  1  0
 26 28  2  0
  8 29  1  0
 29 30  2  0
 30 31  1  0
 31 32  2  0
 32 33  1  0
 33 34  2  0
 30 35  1  0
 35 36  3  0
 34  6  1  0
 28 11  1  0
 34 29  1  0
 25 16  1  0
 25 20  1  0
  1 37  1  0
  1 38  1  0
  1 39  1  0
  3 40  1  0
  3 41  1  0
  3 42  1  0
  7 43  1  0
 12 44  1  0
 13 45  1  0
 15 46  1  0
 15 47  1  0
 18 48  1  0
 18 49  1  0
 18 50  1  0
 21 51  1  0
 23 52  1  0
 24 53  1  0
 28 54  1  0
 31 55  1  0
 32 56  1  0
 33 57  1  0
 36 58  1  0
M  END
>  <_MoleculeID>  (290) 
smi31

>  <_InputIndex>  (290) 
31

>  <_InputSMILES>  (290) 
CN(C)C(=O)n1cc(C(=O)c2ccc(Cn3c(C)nc4cnccc34)c(F)c2)c2c(cccc12)C#C

>  <_InputInChIKey>  (290) 
GDLNHSUSOZEAOR-UHFFFAOYSA-N

>  <_SMILES>  (290) 
C#Cc1cccc2c1c(C(=O)c1ccc(Cn3c(C)nc4cnccc43)c(F)c1)cn2C(=O)N(C)C

>  <_InChIKey>  (290) 
GDLNHSUSOZEAOR-UHFFFAOYSA-N

$$$$
smi31_conf6
     RDKit          3D

 58 62  0  0  0  0  0  0  0  0999 V2000
    7.6644   -0.2329    2.0852 C   0  0  0  0  0  0  0  0  0  0  0  0
    6.2025   -0.1197    1.8723 N   0  0  0  0  0  0  0  0  0  0  0  0
    5.6726   -0.4353    0.5377 C   0  0  0  0  0  0  0  0  0  0  0  0
    5.2750   -0.0122    2.9172 C   0  0  0  0  0  0  0  0  0  0  0  0
    5.5121    0.0046    4.1183 O   0  0  0  0  0  0  0  0  0  0  0  0
    3.9587   -0.0049    2.5199 N   0  0  0  0  0  0  0  0  0  0  0  0
    2.8735    0.0202    3.3696 C   0  0  0  0  0  0  0  0  0  0  0  0
    1.7271    0.0101    2.5972 C   0  0  0  0  0  0  0  0  0  0  0  0
    0.3880    0.0199    3.1015 C   0  0  0  0  0  0  0  0  0  0  0  0
   -0.5072    0.0195    2.2581 O   0  0  0  0  0  0  0  0  0  0  0  0
    0.1365    0.0166    4.5367 C   0  0  0  0  0  0  0  0  0  0  0  0
    1.0383    0.6183    5.4180 C   0  0  0  0  0  0  0  0  0  0  0  0
    0.8028    0.6200    6.8008 C   0  0  0  0  0  0  0  0  0  0  0  0
   -0.3369    0.0210    7.3594 C   0  0  0  0  0  0  0  0  0  0  0  0
   -0.5934    0.0181    8.8230 C   0  0  0  0  0  0  0  0  0  0  0  0
   -0.2166   -1.2368    9.4324 N   0  0  0  0  0  0  0  0  0  0  0  0
    1.0189   -1.5411    9.9527 C   0  0  0  0  0  0  0  0  0  0  0  0
    2.1347   -0.5827    9.9408 C   0  0  0  0  0  0  0  0  0  0  0  0
    1.0411   -2.7673   10.4374 N   0  0  0  0  0  0  0  0  0  0  0  0
   -0.2220   -3.2670   10.2297 C   0  0  0  0  0  0  0  0  0  0  0  0
   -0.7649   -4.5125   10.5460 C   0  0  0  0  0  0  0  0  0  0  0  0
   -2.0579   -4.7846   10.2405 N   0  0  0  0  0  0  0  0  0  0  0  0
   -2.8019   -3.8307    9.6280 C   0  0  0  0  0  0  0  0  0  0  0  0
   -2.3567   -2.5655    9.2724 C   0  0  0  0  0  0  0  0  0  0  0  0
   -1.0298   -2.3265    9.6018 C   0  0  0  0  0  0  0  0  0  0  0  0
   -1.2160   -0.5880    6.4431 C   0  0  0  0  0  0  0  0  0  0  0  0
   -2.3187   -1.1840    6.9223 F   0  0  0  0  0  0  0  0  0  0  0  0
   -0.9981   -0.6035    5.0586 C   0  0  0  0  0  0  0  0  0  0  0  0
    2.1265    0.0000    1.2274 C   0  0  0  0  0  0  0  0  0  0  0  0
    1.4240    0.0000    0.0000 C   0  0  0  0  0  0  0  0  0  0  0  0
    2.1235    0.0018   -1.2160 C   0  0  0  0  0  0  0  0  0  0  0  0
    3.5182   -0.0152   -1.2061 C   0  0  0  0  0  0  0  0  0  0  0  0
    4.2378   -0.0123   -0.0068 C   0  0  0  0  0  0  0  0  0  0  0  0
    3.5251   -0.0013    1.2035 C   0  0  0  0  0  0  0  0  0  0  0  0
    0.0000    0.0000    0.0000 C   0  0  0  0  0  0  0  0  0  0  0  0
   -1.2008    0.0004   -0.0002 C   0  0  0  0  0  0  0  0  0  0  0  0
    8.1639    0.4889    1.4339 H   0  0  0  0  0  0  0  0  0  0  0  0
    7.9705   -1.2487    1.8195 H   0  0  0  0  0  0  0  0  0  0  0  0
    7.9297   -0.0425    3.1272 H   0  0  0  0  0  0  0  0  0  0  0  0
    6.2137    0.1596   -0.2030 H   0  0  0  0  0  0  0  0  0  0  0  0
    4.6045   -0.2090    0.4772 H   0  0  0  0  0  0  0  0  0  0  0  0
    5.8293   -1.5006    0.3469 H   0  0  0  0  0  0  0  0  0  0  0  0
    3.0172    0.0329    4.4407 H   0  0  0  0  0  0  0  0  0  0  0  0
    1.9409    1.0924    5.0395 H   0  0  0  0  0  0  0  0  0  0  0  0
    1.5483    1.1014    7.4289 H   0  0  0  0  0  0  0  0  0  0  0  0
   -1.6528    0.2112    9.0193 H   0  0  0  0  0  0  0  0  0  0  0  0
   -0.0441    0.8145    9.3361 H   0  0  0  0  0  0  0  0  0  0  0  0
    3.0235   -1.0249   10.4007 H   0  0  0  0  0  0  0  0  0  0  0  0
    1.8737    0.3307   10.4837 H   0  0  0  0  0  0  0  0  0  0  0  0
    2.3934   -0.2937    8.9168 H   0  0  0  0  0  0  0  0  0  0  0  0
   -0.2057   -5.3006   11.0345 H   0  0  0  0  0  0  0  0  0  0  0  0
   -3.8260   -4.1252    9.4171 H   0  0  0  0  0  0  0  0  0  0  0  0
   -2.9865   -1.8347    8.7840 H   0  0  0  0  0  0  0  0  0  0  0  0
   -1.7063   -1.0879    4.3904 H   0  0  0  0  0  0  0  0  0  0  0  0
    1.5817    0.0019   -2.1566 H   0  0  0  0  0  0  0  0  0  0  0  0
    4.0705   -0.0316   -2.1433 H   0  0  0  0  0  0  0  0  0  0  0  0
    5.3226   -0.0245   -0.0290 H   0  0  0  0  0  0  0  0  0  0  0  0
   -2.2657    0.0007   -0.0005 H   0  0  0  0  0  0  0  0  0  0  0  0
  1  2  1  0
  2  3  1  0
  2  4  1  0
  4  5  2  0
  4  6  1  0
  6  7  1  0
  7  8  2  0
  8  9  1  0
  9 10  2  0
  9 11  1  0
 11 12  2  0
 12 13  1  0
 13 14  2  0
 14 15  1  0
 15 16  1  0
 16 17  1  0
 17 18  1  0
 17 19  2  0
 19 20  1  0
 20 21  2  0
 21 22  1  0
 22 23  2  0
 23 24  1  0
 24 25  2  0
 14 26  1  0
 26 27  1  0
 26 28  2  0
  8 29  1  0
 29 30  2  0
 30 31  1  0
 31 32  2  0
 32 33  1  0
 33 34  2  0
 30 35  1  0
 35 36  3  0
 34  6  1  0
 28 11  1  0
 34 29  1  0
 25 16  1  0
 25 20  1  0
  1 37  1  0
  1 38  1  0
  1 39  1  0
  3 40  1  0
  3 41  1  0
  3 42  1  0
  7 43  1  0
 12 44  1  0
 13 45  1  0
 15 46  1  0
 15 47  1  0
 18 48  1  0
 18 49  1  0
 18 50  1  0
 21 51  1  0
 23 52  1  0
 24 53  1  0
 28 54  1  0
 31 55  1  0
 32 56  1  0
 33 57  1  0
 36 58  1  0
M  END
>  <_MoleculeID>  (291) 
smi31

>  <_InputIndex>  (291) 
31

>  <_InputSMILES>  (291) 
CN(C)C(=O)n1cc(C(=O)c2ccc(Cn3c(C)nc4cnccc34)c(F)c2)c2c(cccc12)C#C

>  <_InputInChIKey>  (291) 
GDLNHSUSOZEAOR-UHFFFAOYSA-N

>  <_SMILES>  (291) 
C#Cc1cccc2c1c(C(=O)c1ccc(Cn3c(C)nc4cnccc43)c(F)c1)cn2C(=O)N(C)C

>  <_InChIKey>  (291) 
GDLNHSUSOZEAOR-UHFFFAOYSA-N

$$$$
smi31_conf7
     RDKit          3D

 58 62  0  0  0  0  0  0  0  0999 V2000
    7.6644   -0.2329    2.0852 C   0  0  0  0  0  0  0  0  0  0  0  0
    6.2025   -0.1197    1.8723 N   0  0  0  0  0  0  0  0  0  0  0  0
    5.6726   -0.4353    0.5377 C   0  0  0  0  0  0  0  0  0  0  0  0
    5.2750   -0.0122    2.9172 C   0  0  0  0  0  0  0  0  0  0  0  0
    5.5121    0.0046    4.1183 O   0  0  0  0  0  0  0  0  0  0  0  0
    3.9587   -0.0049    2.5199 N   0  0  0  0  0  0  0  0  0  0  0  0
    2.8735    0.0202    3.3696 C   0  0  0  0  0  0  0  0  0  0  0  0
    1.7271    0.0101    2.5972 C   0  0  0  0  0  0  0  0  0  0  0  0
    0.3880    0.0199    3.1015 C   0  0  0  0  0  0  0  0  0  0  0  0
   -0.5072    0.0195    2.2581 O   0  0  0  0  0  0  0  0  0  0  0  0
    0.1365    0.0166    4.5367 C   0  0  0  0  0  0  0  0  0  0  0  0
   -1.0135    0.6142    5.0585 C   0  0  0  0  0  0  0  0  0  0  0  0
   -1.2632    0.6142    6.4388 C   0  0  0  0  0  0  0  0  0  0  0  0
   -0.3771    0.0224    7.3523 C   0  0  0  0  0  0  0  0  0  0  0  0
   -0.6340    0.0186    8.8159 C   0  0  0  0  0  0  0  0  0  0  0  0
    0.1075    1.0567    9.4946 N   0  0  0  0  0  0  0  0  0  0  0  0
   -0.3293    2.3395    9.7257 C   0  0  0  0  0  0  0  0  0  0  0  0
   -1.6513    2.8111    9.2854 C   0  0  0  0  0  0  0  0  0  0  0  0
    0.5812    3.0423   10.3705 N   0  0  0  0  0  0  0  0  0  0  0  0
    1.6356    2.1836   10.5681 C   0  0  0  0  0  0  0  0  0  0  0  0
    2.8633    2.3891   11.1980 C   0  0  0  0  0  0  0  0  0  0  0  0
    3.7625    1.3768   11.2748 N   0  0  0  0  0  0  0  0  0  0  0  0
    3.4455    0.1753   10.7321 C   0  0  0  0  0  0  0  0  0  0  0  0
    2.2557   -0.1292   10.0863 C   0  0  0  0  0  0  0  0  0  0  0  0
    1.3631    0.9321   10.0288 C   0  0  0  0  0  0  0  0  0  0  0  0
    0.7778   -0.5573    6.7925 C   0  0  0  0  0  0  0  0  0  0  0  0
    1.6648   -1.1307    7.6204 F   0  0  0  0  0  0  0  0  0  0  0  0
    1.0475   -0.5658    5.4171 C   0  0  0  0  0  0  0  0  0  0  0  0
    2.1265   -0.0000    1.2274 C   0  0  0  0  0  0  0  0  0  0  0  0
    1.4240    0.0000    0.0000 C   0  0  0  0  0  0  0  0  0  0  0  0
    2.1235    0.0018   -1.2160 C   0  0  0  0  0  0  0  0  0  0  0  0
    3.5182   -0.0152   -1.2061 C   0  0  0  0  0  0  0  0  0  0  0  0
    4.2378   -0.0123   -0.0068 C   0  0  0  0  0  0  0  0  0  0  0  0
    3.5251   -0.0013    1.2035 C   0  0  0  0  0  0  0  0  0  0  0  0
    0.0000    0.0000    0.0000 C   0  0  0  0  0  0  0  0  0  0  0  0
   -1.2008    0.0004   -0.0002 C   0  0  0  0  0  0  0  0  0  0  0  0
    8.1639    0.4889    1.4339 H   0  0  0  0  0  0  0  0  0  0  0  0
    7.9705   -1.2487    1.8195 H   0  0  0  0  0  0  0  0  0  0  0  0
    7.9297   -0.0425    3.1272 H   0  0  0  0  0  0  0  0  0  0  0  0
    6.2137    0.1596   -0.2030 H   0  0  0  0  0  0  0  0  0  0  0  0
    4.6045   -0.2090    0.4772 H   0  0  0  0  0  0  0  0  0  0  0  0
    5.8293   -1.5006    0.3469 H   0  0  0  0  0  0  0  0  0  0  0  0
    3.0172    0.0329    4.4407 H   0  0  0  0  0  0  0  0  0  0  0  0
   -1.7314    1.0924    4.3961 H   0  0  0  0  0  0  0  0  0  0  0  0
   -2.1744    1.1016    6.7766 H   0  0  0  0  0  0  0  0  0  0  0  0
   -0.3667   -0.9536    9.2419 H   0  0  0  0  0  0  0  0  0  0  0  0
   -1.6949    0.1643    9.0454 H   0  0  0  0  0  0  0  0  0  0  0  0
   -1.7973    3.8579    9.5675 H   0  0  0  0  0  0  0  0  0  0  0  0
   -2.4506    2.2108    9.7304 H   0  0  0  0  0  0  0  0  0  0  0  0
   -1.7523    2.7378    8.1975 H   0  0  0  0  0  0  0  0  0  0  0  0
    3.1549    3.3318   11.6437 H   0  0  0  0  0  0  0  0  0  0  0  0
    4.2170   -0.5825   10.8347 H   0  0  0  0  0  0  0  0  0  0  0  0
    2.0450   -1.1035    9.6673 H   0  0  0  0  0  0  0  0  0  0  0  0
    1.9546   -1.0257    5.0319 H   0  0  0  0  0  0  0  0  0  0  0  0
    1.5817    0.0019   -2.1566 H   0  0  0  0  0  0  0  0  0  0  0  0
    4.0705   -0.0316   -2.1433 H   0  0  0  0  0  0  0  0  0  0  0  0
    5.3226   -0.0245   -0.0290 H   0  0  0  0  0  0  0  0  0  0  0  0
   -2.2657    0.0007   -0.0005 H   0  0  0  0  0  0  0  0  0  0  0  0
  1  2  1  0
  2  3  1  0
  2  4  1  0
  4  5  2  0
  4  6  1  0
  6  7  1  0
  7  8  2  0
  8  9  1  0
  9 10  2  0
  9 11  1  0
 11 12  2  0
 12 13  1  0
 13 14  2  0
 14 15  1  0
 15 16  1  0
 16 17  1  0
 17 18  1  0
 17 19  2  0
 19 20  1  0
 20 21  2  0
 21 22  1  0
 22 23  2  0
 23 24  1  0
 24 25  2  0
 14 26  1  0
 26 27  1  0
 26 28  2  0
  8 29  1  0
 29 30  2  0
 30 31  1  0
 31 32  2  0
 32 33  1  0
 33 34  2  0
 30 35  1  0
 35 36  3  0
 34  6  1  0
 28 11  1  0
 34 29  1  0
 25 16  1  0
 25 20  1  0
  1 37  1  0
  1 38  1  0
  1 39  1  0
  3 40  1  0
  3 41  1  0
  3 42  1  0
  7 43  1  0
 12 44  1  0
 13 45  1  0
 15 46  1  0
 15 47  1  0
 18 48  1  0
 18 49  1  0
 18 50  1  0
 21 51  1  0
 23 52  1  0
 24 53  1  0
 28 54  1  0
 31 55  1  0
 32 56  1  0
 33 57  1  0
 36 58  1  0
M  END
>  <_MoleculeID>  (292) 
smi31

>  <_InputIndex>  (292) 
31

>  <_InputSMILES>  (292) 
CN(C)C(=O)n1cc(C(=O)c2ccc(Cn3c(C)nc4cnccc34)c(F)c2)c2c(cccc12)C#C

>  <_InputInChIKey>  (292) 
GDLNHSUSOZEAOR-UHFFFAOYSA-N

>  <_SMILES>  (292) 
C#Cc1cccc2c1c(C(=O)c1ccc(Cn3c(C)nc4cnccc43)c(F)c1)cn2C(=O)N(C)C

>  <_InChIKey>  (292) 
GDLNHSUSOZEAOR-UHFFFAOYSA-N

$$$$
smi31_conf8
     RDKit          3D

 58 62  0  0  0  0  0  0  0  0999 V2000
    7.6644   -0.2329    2.0852 C   0  0  0  0  0  0  0  0  0  0  0  0
    6.2025   -0.1197    1.8723 N   0  0  0  0  0  0  0  0  0  0  0  0
    5.6726   -0.4353    0.5377 C   0  0  0  0  0  0  0  0  0  0  0  0
    5.2750   -0.0122    2.9172 C   0  0  0  0  0  0  0  0  0  0  0  0
    5.5121    0.0046    4.1183 O   0  0  0  0  0  0  0  0  0  0  0  0
    3.9587   -0.0049    2.5199 N   0  0  0  0  0  0  0  0  0  0  0  0
    2.8735    0.0202    3.3696 C   0  0  0  0  0  0  0  0  0  0  0  0
    1.7271    0.0101    2.5972 C   0  0  0  0  0  0  0  0  0  0  0  0
    0.3880    0.0199    3.1015 C   0  0  0  0  0  0  0  0  0  0  0  0
   -0.5072    0.0195    2.2581 O   0  0  0  0  0  0  0  0  0  0  0  0
    0.1365    0.0166    4.5367 C   0  0  0  0  0  0  0  0  0  0  0  0
   -1.0107   -0.5885    5.0561 C   0  0  0  0  0  0  0  0  0  0  0  0
   -1.2593   -0.5968    6.4366 C   0  0  0  0  0  0  0  0  0  0  0  0
   -0.3779   -0.0012    7.3521 C   0  0  0  0  0  0  0  0  0  0  0  0
   -0.6343   -0.0052    8.8158 C   0  0  0  0  0  0  0  0  0  0  0  0
   -0.7080   -1.3477    9.3451 N   0  0  0  0  0  0  0  0  0  0  0  0
   -1.8460   -2.1120    9.4481 C   0  0  0  0  0  0  0  0  0  0  0  0
   -3.1638   -1.6223    9.0153 C   0  0  0  0  0  0  0  0  0  0  0  0
   -1.5794   -3.2926    9.9716 N   0  0  0  0  0  0  0  0  0  0  0  0
   -0.2255   -3.2924   10.2069 C   0  0  0  0  0  0  0  0  0  0  0  0
    0.5987   -4.2806   10.7456 C   0  0  0  0  0  0  0  0  0  0  0  0
    1.9283   -4.0518   10.8840 N   0  0  0  0  0  0  0  0  0  0  0  0
    2.4323   -2.8556   10.4919 C   0  0  0  0  0  0  0  0  0  0  0  0
    1.6991   -1.8113    9.9469 C   0  0  0  0  0  0  0  0  0  0  0  0
    0.3441   -2.0847    9.8219 C   0  0  0  0  0  0  0  0  0  0  0  0
    0.7598    0.6113    6.7921 C   0  0  0  0  0  0  0  0  0  0  0  0
    1.6335    1.2042    7.6204 F   0  0  0  0  0  0  0  0  0  0  0  0
    1.0256    0.6333    5.4161 C   0  0  0  0  0  0  0  0  0  0  0  0
    2.1265   -0.0000    1.2274 C   0  0  0  0  0  0  0  0  0  0  0  0
    1.4240    0.0000    0.0000 C   0  0  0  0  0  0  0  0  0  0  0  0
    2.1235    0.0018   -1.2160 C   0  0  0  0  0  0  0  0  0  0  0  0
    3.5182   -0.0152   -1.2061 C   0  0  0  0  0  0  0  0  0  0  0  0
    4.2378   -0.0123   -0.0068 C   0  0  0  0  0  0  0  0  0  0  0  0
    3.5251   -0.0013    1.2035 C   0  0  0  0  0  0  0  0  0  0  0  0
    0.0000    0.0000    0.0000 C   0  0  0  0  0  0  0  0  0  0  0  0
   -1.2008    0.0004   -0.0002 C   0  0  0  0  0  0  0  0  0  0  0  0
    8.1639    0.4889    1.4339 H   0  0  0  0  0  0  0  0  0  0  0  0
    7.9705   -1.2487    1.8195 H   0  0  0  0  0  0  0  0  0  0  0  0
    7.9297   -0.0425    3.1272 H   0  0  0  0  0  0  0  0  0  0  0  0
    6.2137    0.1596   -0.2030 H   0  0  0  0  0  0  0  0  0  0  0  0
    4.6045   -0.2090    0.4772 H   0  0  0  0  0  0  0  0  0  0  0  0
    5.8293   -1.5006    0.3469 H   0  0  0  0  0  0  0  0  0  0  0  0
    3.0172    0.0329    4.4407 H   0  0  0  0  0  0  0  0  0  0  0  0
   -1.7305   -1.0601    4.3911 H   0  0  0  0  0  0  0  0  0  0  0  0
   -2.1736   -1.0804    6.7716 H   0  0  0  0  0  0  0  0  0  0  0  0
   -1.5686    0.5213    9.0352 H   0  0  0  0  0  0  0  0  0  0  0  0
    0.1463    0.5275    9.3692 H   0  0  0  0  0  0  0  0  0  0  0  0
   -3.9298   -2.3845    9.1857 H   0  0  0  0  0  0  0  0  0  0  0  0
   -3.1561   -1.3609    7.9528 H   0  0  0  0  0  0  0  0  0  0  0  0
   -3.4516   -0.7245    9.5723 H   0  0  0  0  0  0  0  0  0  0  0  0
    0.2366   -5.2481   11.0703 H   0  0  0  0  0  0  0  0  0  0  0  0
    3.5039   -2.7501   10.6350 H   0  0  0  0  0  0  0  0  0  0  0  0
    2.1438   -0.8720    9.6477 H   0  0  0  0  0  0  0  0  0  0  0  0
    1.9184    1.1201    5.0307 H   0  0  0  0  0  0  0  0  0  0  0  0
    1.5817    0.0019   -2.1566 H   0  0  0  0  0  0  0  0  0  0  0  0
    4.0705   -0.0316   -2.1433 H   0  0  0  0  0  0  0  0  0  0  0  0
    5.3226   -0.0245   -0.0290 H   0  0  0  0  0  0  0  0  0  0  0  0
   -2.2657    0.0007   -0.0005 H   0  0  0  0  0  0  0  0  0  0  0  0
  1  2  1  0
  2  3  1  0
  2  4  1  0
  4  5  2  0
  4  6  1  0
  6  7  1  0
  7  8  2  0
  8  9  1  0
  9 10  2  0
  9 11  1  0
 11 12  2  0
 12 13  1  0
 13 14  2  0
 14 15  1  0
 15 16  1  0
 16 17  1  0
 17 18  1  0
 17 19  2  0
 19 20  1  0
 20 21  2  0
 21 22  1  0
 22 23  2  0
 23 24  1  0
 24 25  2  0
 14 26  1  0
 26 27  1  0
 26 28  2  0
  8 29  1  0
 29 30  2  0
 30 31  1  0
 31 32  2  0
 32 33  1  0
 33 34  2  0
 30 35  1  0
 35 36  3  0
 34  6  1  0
 28 11  1  0
 34 29  1  0
 25 16  1  0
 25 20  1  0
  1 37  1  0
  1 38  1  0
  1 39  1  0
  3 40  1  0
  3 41  1  0
  3 42  1  0
  7 43  1  0
 12 44  1  0
 13 45  1  0
 15 46  1  0
 15 47  1  0
 18 48  1  0
 18 49  1  0
 18 50  1  0
 21 51  1  0
 23 52  1  0
 24 53  1  0
 28 54  1  0
 31 55  1  0
 32 56  1  0
 33 57  1  0
 36 58  1  0
M  END
>  <_MoleculeID>  (293) 
smi31

>  <_InputIndex>  (293) 
31

>  <_InputSMILES>  (293) 
CN(C)C(=O)n1cc(C(=O)c2ccc(Cn3c(C)nc4cnccc34)c(F)c2)c2c(cccc12)C#C

>  <_InputInChIKey>  (293) 
GDLNHSUSOZEAOR-UHFFFAOYSA-N

>  <_SMILES>  (293) 
C#Cc1cccc2c1c(C(=O)c1ccc(Cn3c(C)nc4cnccc43)c(F)c1)cn2C(=O)N(C)C

>  <_InChIKey>  (293) 
GDLNHSUSOZEAOR-UHFFFAOYSA-N

$$$$
smi31_conf9
     RDKit          3D

 58 62  0  0  0  0  0  0  0  0999 V2000
    7.6644   -0.2329    2.0852 C   0  0  0  0  0  0  0  0  0  0  0  0
    6.2025   -0.1197    1.8723 N   0  0  0  0  0  0  0  0  0  0  0  0
    5.6726   -0.4353    0.5377 C   0  0  0  0  0  0  0  0  0  0  0  0
    5.2750   -0.0122    2.9172 C   0  0  0  0  0  0  0  0  0  0  0  0
    5.5121    0.0046    4.1183 O   0  0  0  0  0  0  0  0  0  0  0  0
    3.9587   -0.0049    2.5199 N   0  0  0  0  0  0  0  0  0  0  0  0
    2.8735    0.0202    3.3696 C   0  0  0  0  0  0  0  0  0  0  0  0
    1.7271    0.0101    2.5972 C   0  0  0  0  0  0  0  0  0  0  0  0
    0.3880    0.0199    3.1015 C   0  0  0  0  0  0  0  0  0  0  0  0
   -0.5072    0.0195    2.2581 O   0  0  0  0  0  0  0  0  0  0  0  0
    0.1365    0.0166    4.5367 C   0  0  0  0  0  0  0  0  0  0  0  0
    1.0383    0.6183    5.4180 C   0  0  0  0  0  0  0  0  0  0  0  0
    0.8028    0.6200    6.8008 C   0  0  0  0  0  0  0  0  0  0  0  0
   -0.3369    0.0210    7.3594 C   0  0  0  0  0  0  0  0  0  0  0  0
   -0.5934    0.0181    8.8230 C   0  0  0  0  0  0  0  0  0  0  0  0
   -0.7052    1.3581    9.3520 N   0  0  0  0  0  0  0  0  0  0  0  0
    0.3294    2.1210    9.8392 C   0  0  0  0  0  0  0  0  0  0  0  0
    1.7163    1.6322    9.8780 C   0  0  0  0  0  0  0  0  0  0  0  0
   -0.1002    3.2994   10.2463 N   0  0  0  0  0  0  0  0  0  0  0  0
   -1.4535    3.2992   10.0073 C   0  0  0  0  0  0  0  0  0  0  0  0
   -2.4125    4.2856   10.2382 C   0  0  0  0  0  0  0  0  0  0  0  0
   -3.7098    4.0572    9.9152 N   0  0  0  0  0  0  0  0  0  0  0  0
   -4.0495    2.8632    9.3697 C   0  0  0  0  0  0  0  0  0  0  0  0
   -3.1738    1.8208    9.1016 C   0  0  0  0  0  0  0  0  0  0  0  0
   -1.8573    2.0937    9.4461 C   0  0  0  0  0  0  0  0  0  0  0  0
   -1.2160   -0.5880    6.4431 C   0  0  0  0  0  0  0  0  0  0  0  0
   -2.3187   -1.1840    6.9223 F   0  0  0  0  0  0  0  0  0  0  0  0
   -0.9981   -0.6035    5.0586 C   0  0  0  0  0  0  0  0  0  0  0  0
    2.1265    0.0000    1.2274 C   0  0  0  0  0  0  0  0  0  0  0  0
    1.4240    0.0000    0.0000 C   0  0  0  0  0  0  0  0  0  0  0  0
    2.1235    0.0018   -1.2160 C   0  0  0  0  0  0  0  0  0  0  0  0
    3.5182   -0.0152   -1.2061 C   0  0  0  0  0  0  0  0  0  0  0  0
    4.2378   -0.0123   -0.0068 C   0  0  0  0  0  0  0  0  0  0  0  0
    3.5251   -0.0013    1.2035 C   0  0  0  0  0  0  0  0  0  0  0  0
    0.0000    0.0000    0.0000 C   0  0  0  0  0  0  0  0  0  0  0  0
   -1.2008    0.0004   -0.0002 C   0  0  0  0  0  0  0  0  0  0  0  0
    8.1639    0.4889    1.4339 H   0  0  0  0  0  0  0  0  0  0  0  0
    7.9705   -1.2487    1.8195 H   0  0  0  0  0  0  0  0  0  0  0  0
    7.9297   -0.0425    3.1272 H   0  0  0  0  0  0  0  0  0  0  0  0
    6.2137    0.1596   -0.2030 H   0  0  0  0  0  0  0  0  0  0  0  0
    4.6045   -0.2090    0.4772 H   0  0  0  0  0  0  0  0  0  0  0  0
    5.8293   -1.5006    0.3469 H   0  0  0  0  0  0  0  0  0  0  0  0
    3.0172    0.0329    4.4407 H   0  0  0  0  0  0  0  0  0  0  0  0
    1.9409    1.0924    5.0395 H   0  0  0  0  0  0  0  0  0  0  0  0
    1.5483    1.1014    7.4289 H   0  0  0  0  0  0  0  0  0  0  0  0
    0.2111   -0.5102    9.3446 H   0  0  0  0  0  0  0  0  0  0  0  0
   -1.5152   -0.5165    9.0756 H   0  0  0  0  0  0  0  0  0  0  0  0
    2.3781    2.3930   10.3022 H   0  0  0  0  0  0  0  0  0  0  0  0
    2.0705    1.3758    8.8750 H   0  0  0  0  0  0  0  0  0  0  0  0
    1.7983    0.7317   10.4956 H   0  0  0  0  0  0  0  0  0  0  0  0
   -2.1832    5.2513   10.6711 H   0  0  0  0  0  0  0  0  0  0  0  0
   -5.1059    2.7579    9.1395 H   0  0  0  0  0  0  0  0  0  0  0  0
   -3.4895    0.8833    8.6648 H   0  0  0  0  0  0  0  0  0  0  0  0
   -1.7063   -1.0879    4.3904 H   0  0  0  0  0  0  0  0  0  0  0  0
    1.5817    0.0019   -2.1566 H   0  0  0  0  0  0  0  0  0  0  0  0
    4.0705   -0.0316   -2.1433 H   0  0  0  0  0  0  0  0  0  0  0  0
    5.3226   -0.0245   -0.0290 H   0  0  0  0  0  0  0  0  0  0  0  0
   -2.2657    0.0007   -0.0005 H   0  0  0  0  0  0  0  0  0  0  0  0
  1  2  1  0
  2  3  1  0
  2  4  1  0
  4  5  2  0
  4  6  1  0
  6  7  1  0
  7  8  2  0
  8  9  1  0
  9 10  2  0
  9 11  1  0
 11 12  2  0
 12 13  1  0
 13 14  2  0
 14 15  1  0
 15 16  1  0
 16 17  1  0
 17 18  1  0
 17 19  2  0
 19 20  1  0
 20 21  2  0
 21 22  1  0
 22 23  2  0
 23 24  1  0
 24 25  2  0
 14 26  1  0
 26 27  1  0
 26 28  2  0
  8 29  1  0
 29 30  2  0
 30 31  1  0
 31 32  2  0
 32 33  1  0
 33 34  2  0
 30 35  1  0
 35 36  3  0
 34  6  1  0
 28 11  1  0
 34 29  1  0
 25 16  1  0
 25 20  1  0
  1 37  1  0
  1 38  1  0
  1 39  1  0
  3 40  1  0
  3 41  1  0
  3 42  1  0
  7 43  1  0
 12 44  1  0
 13 45  1  0
 15 46  1  0
 15 47  1  0
 18 48  1  0
 18 49  1  0
 18 50  1  0
 21 51  1  0
 23 52  1  0
 24 53  1  0
 28 54  1  0
 31 55  1  0
 32 56  1  0
 33 57  1  0
 36 58  1  0
M  END
>  <_MoleculeID>  (294) 
smi31

>  <_InputIndex>  (294) 
31

>  <_InputSMILES>  (294) 
CN(C)C(=O)n1cc(C(=O)c2ccc(Cn3c(C)nc4cnccc34)c(F)c2)c2c(cccc12)C#C

>  <_InputInChIKey>  (294) 
GDLNHSUSOZEAOR-UHFFFAOYSA-N

>  <_SMILES>  (294) 
C#Cc1cccc2c1c(C(=O)c1ccc(Cn3c(C)nc4cnccc43)c(F)c1)cn2C(=O)N(C)C

>  <_InChIKey>  (294) 
GDLNHSUSOZEAOR-UHFFFAOYSA-N

$$$$
smi32_conf0
     RDKit          3D

 50 53  0  0  0  0  0  0  0  0999 V2000
   -0.0342   -0.0037    2.3777 F   0  0  0  0  0  0  0  0  0  0  0  0
   -0.6943    0.0000    1.2092 C   0  0  0  0  0  0  0  0  0  0  0  0
   -2.0911   -0.0155    1.1816 C   0  0  0  0  0  0  0  0  0  0  0  0
   -2.7882   -0.0107   -0.0357 C   0  0  0  0  0  0  0  0  0  0  0  0
   -2.1225    0.0068   -1.2711 C   0  0  0  0  0  0  0  0  0  0  0  0
   -0.7157    0.0074   -1.2050 C   0  0  0  0  0  0  0  0  0  0  0  0
    0.0000    0.0000    0.0000 C   0  0  0  0  0  0  0  0  0  0  0  0
    1.4280    0.0000    0.0000 N   0  0  0  0  0  0  0  0  0  0  0  0
    2.2546    1.1543   -0.9686 S   0  0  0  0  0  6  0  0  0  0  0  0
    3.6831    0.9235   -0.8636 O   0  0  0  0  0  0  0  0  0  0  0  0
    1.6339    1.2270   -2.2776 O   0  0  0  0  0  0  0  0  0  0  0  0
    1.9179    2.6706   -0.1198 C   0  0  0  0  0  0  0  0  0  0  0  0
    1.0865    3.6365   -0.6923 C   0  0  0  0  0  0  0  0  0  0  0  0
    0.8140    4.8402   -0.0254 C   0  0  0  0  0  0  0  0  0  0  0  0
   -0.0581    5.7905   -0.7029 C   0  0  0  0  0  0  0  0  0  0  0  0
    0.4159    6.6349   -1.4577 O   0  0  0  0  0  0  0  0  0  0  0  0
   -1.4002    5.6673   -0.4624 N   0  0  0  0  0  0  0  0  0  0  0  0
   -2.3760    6.5517   -1.1021 C   0  0  0  0  0  0  0  0  0  0  0  0
   -3.4730    6.9981   -0.1257 C   0  0  0  0  0  0  0  0  0  0  0  0
   -4.0248    5.8231    0.5411 N   0  0  0  0  0  0  0  0  0  0  0  0
   -5.0788    6.0966    1.5096 C   0  0  0  0  0  0  0  0  0  0  0  0
   -5.1278    4.8082    2.3339 C   0  0  0  0  0  0  0  0  0  0  0  0
   -3.8214    4.0701    2.0259 C   0  0  0  0  0  0  0  0  0  0  0  0
   -2.9889    5.1081    1.2962 C   0  0  1  0  0  0  0  0  0  0  0  0
   -1.9328    4.5684    0.3445 C   0  0  0  0  0  0  0  0  0  0  0  0
    1.3605    5.1297    1.2344 C   0  0  0  0  0  0  0  0  0  0  0  0
    1.0325    6.6038    2.0599 Cl  0  0  0  0  0  0  0  0  0  0  0  0
    2.2047    4.1401    1.7742 C   0  0  0  0  0  0  0  0  0  0  0  0
    2.4920    2.9324    1.1236 C   0  0  0  0  0  0  0  0  0  0  0  0
    3.3059    2.0268    1.6879 F   0  0  0  0  0  0  0  0  0  0  0  0
   -2.6574   -0.0350    2.1098 H   0  0  0  0  0  0  0  0  0  0  0  0
   -3.8740   -0.0288    0.0162 H   0  0  0  0  0  0  0  0  0  0  0  0
   -2.6547    0.0102   -2.2130 H   0  0  0  0  0  0  0  0  0  0  0  0
   -0.1564    0.0140   -2.1397 H   0  0  0  0  0  0  0  0  0  0  0  0
    1.8595   -0.2217    0.9069 H   0  0  0  0  0  0  0  0  0  0  0  0
    0.6408    3.4663   -1.6696 H   0  0  0  0  0  0  0  0  0  0  0  0
   -1.8655    7.4235   -1.5259 H   0  0  0  0  0  0  0  0  0  0  0  0
   -2.8151    5.9896   -1.9357 H   0  0  0  0  0  0  0  0  0  0  0  0
   -3.0535    7.7025    0.6041 H   0  0  0  0  0  0  0  0  0  0  0  0
   -4.2563    7.5238   -0.6832 H   0  0  0  0  0  0  0  0  0  0  0  0
   -6.0385    6.3025    1.0258 H   0  0  0  0  0  0  0  0  0  0  0  0
   -4.8268    6.9433    2.1602 H   0  0  0  0  0  0  0  0  0  0  0  0
   -5.9855    4.1867    2.0534 H   0  0  0  0  0  0  0  0  0  0  0  0
   -5.2101    5.0356    3.4023 H   0  0  0  0  0  0  0  0  0  0  0  0
   -3.3319    3.7139    2.9377 H   0  0  0  0  0  0  0  0  0  0  0  0
   -4.0285    3.1994    1.3915 H   0  0  0  0  0  0  0  0  0  0  0  0
   -2.5164    5.7797    2.0287 H   0  0  0  0  0  0  0  0  0  0  0  0
   -2.3546    3.8325   -0.3510 H   0  0  0  0  0  0  0  0  0  0  0  0
   -1.1224    4.0782    0.8948 H   0  0  0  0  0  0  0  0  0  0  0  0
    2.6571    4.3245    2.7478 H   0  0  0  0  0  0  0  0  0  0  0  0
  1  2  1  0
  2  3  2  0
  3  4  1  0
  4  5  2  0
  5  6  1  0
  6  7  2  0
  7  8  1  0
  8  9  1  0
  9 10  2  0
  9 11  2  0
  9 12  1  0
 12 13  2  0
 13 14  1  0
 14 15  1  0
 15 16  2  0
 15 17  1  0
 17 18  1  0
 18 19  1  0
 19 20  1  0
 20 21  1  0
 21 22  1  0
 22 23  1  0
 24 23  1  0
 24 25  1  0
 14 26  2  0
 26 27  1  0
 26 28  1  0
 28 29  2  0
 29 30  1  0
  7  2  1  0
 29 12  1  0
 25 17  1  0
 24 20  1  0
  3 31  1  0
  4 32  1  0
  5 33  1  0
  6 34  1  0
  8 35  1  0
 13 36  1  0
 18 37  1  0
 18 38  1  0
 19 39  1  0
 19 40  1  0
 21 41  1  0
 21 42  1  0
 22 43  1  0
 22 44  1  0
 23 45  1  0
 23 46  1  0
 24 47  1  1
 25 48  1  0
 25 49  1  0
 28 50  1  0
M  END
>  <_MoleculeID>  (295) 
smi32

>  <_InputIndex>  (295) 
32

>  <_InputSMILES>  (295) 
Fc1ccccc1NS(=O)(=O)c1cc(C(=O)N2CCN3CCC[C@@H]3C2)c(Cl)cc1F

>  <_InputInChIKey>  (295) 
AGPIHNZOZNKRGT-CYBMUJFWSA-N

>  <_SMILES>  (295) 
O=C(c1cc(S(=O)(=O)Nc2ccccc2F)c(F)cc1Cl)N1CCN2CCC[C@@H]2C1

>  <_InChIKey>  (295) 
AGPIHNZOZNKRGT-CYBMUJFWSA-N

$$$$
smi32_conf1
     RDKit          3D

 50 53  0  0  0  0  0  0  0  0999 V2000
   -0.0342   -0.0037    2.3777 F   0  0  0  0  0  0  0  0  0  0  0  0
   -0.6943    0.0000    1.2092 C   0  0  0  0  0  0  0  0  0  0  0  0
   -2.0911   -0.0155    1.1816 C   0  0  0  0  0  0  0  0  0  0  0  0
   -2.7882   -0.0107   -0.0357 C   0  0  0  0  0  0  0  0  0  0  0  0
   -2.1225    0.0068   -1.2711 C   0  0  0  0  0  0  0  0  0  0  0  0
   -0.7157    0.0074   -1.2050 C   0  0  0  0  0  0  0  0  0  0  0  0
    0.0000    0.0000    0.0000 C   0  0  0  0  0  0  0  0  0  0  0  0
    1.4280   -0.0000    0.0000 N   0  0  0  0  0  0  0  0  0  0  0  0
    2.2546   -1.1543   -0.9686 S   0  0  0  0  0  6  0  0  0  0  0  0
    1.6001   -1.2429   -2.2604 O   0  0  0  0  0  0  0  0  0  0  0  0
    3.6833   -0.9127   -0.9033 O   0  0  0  0  0  0  0  0  0  0  0  0
    1.9179   -2.6706   -0.1198 C   0  0  0  0  0  0  0  0  0  0  0  0
    1.0559   -3.6199   -0.6747 C   0  0  0  0  0  0  0  0  0  0  0  0
    0.7849   -4.8243   -0.0086 C   0  0  0  0  0  0  0  0  0  0  0  0
   -0.1316   -5.7505   -0.6605 C   0  0  0  0  0  0  0  0  0  0  0  0
    0.2977   -6.6075   -1.4278 O   0  0  0  0  0  0  0  0  0  0  0  0
   -1.4587   -5.6155   -0.3526 N   0  0  0  0  0  0  0  0  0  0  0  0
   -1.9038   -4.5765    0.5664 C   0  0  0  0  0  0  0  0  0  0  0  0
   -3.4054   -4.6407    0.8475 C   0  0  0  0  0  0  0  0  0  0  0  0
   -4.2171   -4.7629   -0.3632 N   0  0  0  0  0  0  0  0  0  0  0  0
   -4.3659   -3.4967   -1.0902 C   0  0  0  0  0  0  0  0  0  0  0  0
   -4.5579   -3.9169   -2.5341 C   0  0  0  0  0  0  0  0  0  0  0  0
   -3.5954   -5.0803   -2.6553 C   0  0  0  0  0  0  0  0  0  0  0  0
   -3.7349   -5.7916   -1.3079 C   0  0  1  0  0  0  0  0  0  0  0  0
   -2.4610   -6.5281   -0.8857 C   0  0  0  0  0  0  0  0  0  0  0  0
    1.3585   -5.1286    1.2356 C   0  0  0  0  0  0  0  0  0  0  0  0
    1.0315   -6.6032    2.0605 Cl  0  0  0  0  0  0  0  0  0  0  0  0
    2.2102   -4.1431    1.7711 C   0  0  0  0  0  0  0  0  0  0  0  0
    2.4920   -2.9324    1.1236 C   0  0  0  0  0  0  0  0  0  0  0  0
    3.3118   -2.0300    1.6845 F   0  0  0  0  0  0  0  0  0  0  0  0
   -2.6574   -0.0350    2.1098 H   0  0  0  0  0  0  0  0  0  0  0  0
   -3.8740   -0.0288    0.0162 H   0  0  0  0  0  0  0  0  0  0  0  0
   -2.6547    0.0102   -2.2130 H   0  0  0  0  0  0  0  0  0  0  0  0
   -0.1564    0.0140   -2.1397 H   0  0  0  0  0  0  0  0  0  0  0  0
    1.8595    0.2217    0.9069 H   0  0  0  0  0  0  0  0  0  0  0  0
    0.5796   -3.4330   -1.6343 H   0  0  0  0  0  0  0  0  0  0  0  0
   -1.3365   -4.6815    1.4987 H   0  0  0  0  0  0  0  0  0  0  0  0
   -1.6192   -3.6112    0.1319 H   0  0  0  0  0  0  0  0  0  0  0  0
   -3.6106   -5.5144    1.4797 H   0  0  0  0  0  0  0  0  0  0  0  0
   -3.7173   -3.7711    1.4385 H   0  0  0  0  0  0  0  0  0  0  0  0
   -3.4711   -2.8673   -1.0166 H   0  0  0  0  0  0  0  0  0  0  0  0
   -5.2200   -2.9220   -0.7187 H   0  0  0  0  0  0  0  0  0  0  0  0
   -4.3303   -3.1131   -3.2399 H   0  0  0  0  0  0  0  0  0  0  0  0
   -5.5877   -4.2519   -2.7077 H   0  0  0  0  0  0  0  0  0  0  0  0
   -3.8473   -5.7324   -3.4972 H   0  0  0  0  0  0  0  0  0  0  0  0
   -2.5769   -4.7024   -2.8068 H   0  0  0  0  0  0  0  0  0  0  0  0
   -4.5345   -6.5372   -1.4085 H   0  0  0  0  0  0  0  0  0  0  0  0
   -2.0407   -7.1021   -1.7195 H   0  0  0  0  0  0  0  0  0  0  0  0
   -2.6886   -7.2423   -0.0846 H   0  0  0  0  0  0  0  0  0  0  0  0
    2.6729   -4.3331    2.7387 H   0  0  0  0  0  0  0  0  0  0  0  0
  1  2  1  0
  2  3  2  0
  3  4  1  0
  4  5  2  0
  5  6  1  0
  6  7  2  0
  7  8  1  0
  8  9  1  0
  9 10  2  0
  9 11  2  0
  9 12  1  0
 12 13  2  0
 13 14  1  0
 14 15  1  0
 15 16  2  0
 15 17  1  0
 17 18  1  0
 18 19  1  0
 19 20  1  0
 20 21  1  0
 21 22  1  0
 22 23  1  0
 24 23  1  0
 24 25  1  0
 14 26  2  0
 26 27  1  0
 26 28  1  0
 28 29  2  0
 29 30  1  0
  7  2  1  0
 29 12  1  0
 25 17  1  0
 24 20  1  0
  3 31  1  0
  4 32  1  0
  5 33  1  0
  6 34  1  0
  8 35  1  0
 13 36  1  0
 18 37  1  0
 18 38  1  0
 19 39  1  0
 19 40  1  0
 21 41  1  0
 21 42  1  0
 22 43  1  0
 22 44  1  0
 23 45  1  0
 23 46  1  0
 24 47  1  6
 25 48  1  0
 25 49  1  0
 28 50  1  0
M  END
>  <_MoleculeID>  (296) 
smi32

>  <_InputIndex>  (296) 
32

>  <_InputSMILES>  (296) 
Fc1ccccc1NS(=O)(=O)c1cc(C(=O)N2CCN3CCC[C@@H]3C2)c(Cl)cc1F

>  <_InputInChIKey>  (296) 
AGPIHNZOZNKRGT-CYBMUJFWSA-N

>  <_SMILES>  (296) 
O=C(c1cc(S(=O)(=O)Nc2ccccc2F)c(F)cc1Cl)N1CCN2CCC[C@@H]2C1

>  <_InChIKey>  (296) 
AGPIHNZOZNKRGT-CYBMUJFWSA-N

$$$$
smi32_conf2
     RDKit          3D

 50 53  0  0  0  0  0  0  0  0999 V2000
   -0.0342   -0.0037    2.3777 F   0  0  0  0  0  0  0  0  0  0  0  0
   -0.6943    0.0000    1.2092 C   0  0  0  0  0  0  0  0  0  0  0  0
   -2.0911   -0.0155    1.1816 C   0  0  0  0  0  0  0  0  0  0  0  0
   -2.7882   -0.0107   -0.0357 C   0  0  0  0  0  0  0  0  0  0  0  0
   -2.1225    0.0068   -1.2711 C   0  0  0  0  0  0  0  0  0  0  0  0
   -0.7157    0.0074   -1.2050 C   0  0  0  0  0  0  0  0  0  0  0  0
    0.0000    0.0000    0.0000 C   0  0  0  0  0  0  0  0  0  0  0  0
    1.4280    0.0000   -0.0000 N   0  0  0  0  0  0  0  0  0  0  0  0
    2.2546    1.1543   -0.9686 S   0  0  0  0  0  6  0  0  0  0  0  0
    3.6831    0.9235   -0.8636 O   0  0  0  0  0  0  0  0  0  0  0  0
    1.6339    1.2270   -2.2776 O   0  0  0  0  0  0  0  0  0  0  0  0
    1.9179    2.6706   -0.1198 C   0  0  0  0  0  0  0  0  0  0  0  0
    1.0865    3.6365   -0.6923 C   0  0  0  0  0  0  0  0  0  0  0  0
    0.8140    4.8402   -0.0254 C   0  0  0  0  0  0  0  0  0  0  0  0
   -0.0581    5.7905   -0.7029 C   0  0  0  0  0  0  0  0  0  0  0  0
   -1.2720    5.7523   -0.5228 O   0  0  0  0  0  0  0  0  0  0  0  0
    0.5522    6.7110   -1.5118 N   0  0  0  0  0  0  0  0  0  0  0  0
   -0.2282    7.7203   -2.2200 C   0  0  0  0  0  0  0  0  0  0  0  0
    0.6473    8.8673   -2.7218 C   0  0  0  0  0  0  0  0  0  0  0  0
    1.7058    8.3624   -3.5943 N   0  0  0  0  0  0  0  0  0  0  0  0
    2.7305    9.3636   -3.8927 C   0  0  0  0  0  0  0  0  0  0  0  0
    3.9302    8.5245   -4.2900 C   0  0  0  0  0  0  0  0  0  0  0  0
    3.8714    7.3810   -3.2936 C   0  0  0  0  0  0  0  0  0  0  0  0
    2.3738    7.1385   -3.1122 C   0  0  1  0  0  0  0  0  0  0  0  0
    2.0004    6.7294   -1.6870 C   0  0  0  0  0  0  0  0  0  0  0  0
    1.3605    5.1297    1.2344 C   0  0  0  0  0  0  0  0  0  0  0  0
    1.0325    6.6038    2.0599 Cl  0  0  0  0  0  0  0  0  0  0  0  0
    2.2047    4.1401    1.7742 C   0  0  0  0  0  0  0  0  0  0  0  0
    2.4920    2.9324    1.1236 C   0  0  0  0  0  0  0  0  0  0  0  0
    3.3059    2.0268    1.6879 F   0  0  0  0  0  0  0  0  0  0  0  0
   -2.6574   -0.0350    2.1098 H   0  0  0  0  0  0  0  0  0  0  0  0
   -3.8740   -0.0288    0.0162 H   0  0  0  0  0  0  0  0  0  0  0  0
   -2.6547    0.0102   -2.2130 H   0  0  0  0  0  0  0  0  0  0  0  0
   -0.1564    0.0140   -2.1397 H   0  0  0  0  0  0  0  0  0  0  0  0
    1.8595   -0.2217    0.9069 H   0  0  0  0  0  0  0  0  0  0  0  0
    0.6408    3.4663   -1.6696 H   0  0  0  0  0  0  0  0  0  0  0  0
   -1.0129    8.0921   -1.5512 H   0  0  0  0  0  0  0  0  0  0  0  0
   -0.7285    7.2166   -3.0564 H   0  0  0  0  0  0  0  0  0  0  0  0
    1.0702    9.3944   -1.8562 H   0  0  0  0  0  0  0  0  0  0  0  0
    0.0280    9.5847   -3.2718 H   0  0  0  0  0  0  0  0  0  0  0  0
    2.4190   10.0364   -4.6973 H   0  0  0  0  0  0  0  0  0  0  0  0
    2.9830    9.9639   -3.0096 H   0  0  0  0  0  0  0  0  0  0  0  0
    3.8168    8.1451   -5.3129 H   0  0  0  0  0  0  0  0  0  0  0  0
    4.8704    9.0800   -4.2288 H   0  0  0  0  0  0  0  0  0  0  0  0
    4.3414    7.6917   -2.3526 H   0  0  0  0  0  0  0  0  0  0  0  0
    4.3957    6.4935   -3.6614 H   0  0  0  0  0  0  0  0  0  0  0  0
    2.0646    6.3327   -3.7914 H   0  0  0  0  0  0  0  0  0  0  0  0
    2.4149    5.7453   -1.4397 H   0  0  0  0  0  0  0  0  0  0  0  0
    2.3980    7.4421   -0.9537 H   0  0  0  0  0  0  0  0  0  0  0  0
    2.6571    4.3245    2.7478 H   0  0  0  0  0  0  0  0  0  0  0  0
  1  2  1  0
  2  3  2  0
  3  4  1  0
  4  5  2  0
  5  6  1  0
  6  7  2  0
  7  8  1  0
  8  9  1  0
  9 10  2  0
  9 11  2  0
  9 12  1  0
 12 13  2  0
 13 14  1  0
 14 15  1  0
 15 16  2  0
 15 17  1  0
 17 18  1  0
 18 19  1  0
 19 20  1  0
 20 21  1  0
 21 22  1  0
 22 23  1  0
 24 23  1  0
 24 25  1  0
 14 26  2  0
 26 27  1  0
 26 28  1  0
 28 29  2  0
 29 30  1  0
  7  2  1  0
 29 12  1  0
 25 17  1  0
 24 20  1  0
  3 31  1  0
  4 32  1  0
  5 33  1  0
  6 34  1  0
  8 35  1  0
 13 36  1  0
 18 37  1  0
 18 38  1  0
 19 39  1  0
 19 40  1  0
 21 41  1  0
 21 42  1  0
 22 43  1  0
 22 44  1  0
 23 45  1  0
 23 46  1  0
 24 47  1  6
 25 48  1  0
 25 49  1  0
 28 50  1  0
M  END
>  <_MoleculeID>  (297) 
smi32

>  <_InputIndex>  (297) 
32

>  <_InputSMILES>  (297) 
Fc1ccccc1NS(=O)(=O)c1cc(C(=O)N2CCN3CCC[C@@H]3C2)c(Cl)cc1F

>  <_InputInChIKey>  (297) 
AGPIHNZOZNKRGT-CYBMUJFWSA-N

>  <_SMILES>  (297) 
O=C(c1cc(S(=O)(=O)Nc2ccccc2F)c(F)cc1Cl)N1CCN2CCC[C@@H]2C1

>  <_InChIKey>  (297) 
AGPIHNZOZNKRGT-CYBMUJFWSA-N

$$$$
smi32_conf3
     RDKit          3D

 50 53  0  0  0  0  0  0  0  0999 V2000
   -0.0342   -0.0037    2.3777 F   0  0  0  0  0  0  0  0  0  0  0  0
   -0.6943    0.0000    1.2092 C   0  0  0  0  0  0  0  0  0  0  0  0
   -2.0911   -0.0155    1.1816 C   0  0  0  0  0  0  0  0  0  0  0  0
   -2.7882   -0.0107   -0.0357 C   0  0  0  0  0  0  0  0  0  0  0  0
   -2.1225    0.0068   -1.2711 C   0  0  0  0  0  0  0  0  0  0  0  0
   -0.7157    0.0074   -1.2050 C   0  0  0  0  0  0  0  0  0  0  0  0
    0.0000    0.0000    0.0000 C   0  0  0  0  0  0  0  0  0  0  0  0
    1.4280   -0.0000    0.0000 N   0  0  0  0  0  0  0  0  0  0  0  0
    2.2546   -1.1543   -0.9686 S   0  0  0  0  0  6  0  0  0  0  0  0
    1.6001   -1.2429   -2.2604 O   0  0  0  0  0  0  0  0  0  0  0  0
    3.6833   -0.9127   -0.9033 O   0  0  0  0  0  0  0  0  0  0  0  0
    1.9179   -2.6706   -0.1198 C   0  0  0  0  0  0  0  0  0  0  0  0
    1.0559   -3.6199   -0.6747 C   0  0  0  0  0  0  0  0  0  0  0  0
    0.7849   -4.8243   -0.0086 C   0  0  0  0  0  0  0  0  0  0  0  0
   -0.1316   -5.7505   -0.6605 C   0  0  0  0  0  0  0  0  0  0  0  0
    0.2977   -6.6075   -1.4278 O   0  0  0  0  0  0  0  0  0  0  0  0
   -1.4587   -5.6155   -0.3526 N   0  0  0  0  0  0  0  0  0  0  0  0
   -2.4548   -6.5043   -0.9340 C   0  0  0  0  0  0  0  0  0  0  0  0
   -3.8753   -6.0034   -0.6865 C   0  0  0  0  0  0  0  0  0  0  0  0
   -4.1202   -5.8386    0.7489 N   0  0  0  0  0  0  0  0  0  0  0  0
   -5.3996   -5.1719    1.0205 C   0  0  0  0  0  0  0  0  0  0  0  0
   -5.0375   -3.7580    1.4289 C   0  0  0  0  0  0  0  0  0  0  0  0
   -3.7507   -3.9575    2.2024 C   0  0  0  0  0  0  0  0  0  0  0  0
   -3.0522   -5.0949    1.4584 C   0  0  2  0  0  0  0  0  0  0  0  0
   -1.9348   -4.5718    0.5446 C   0  0  0  0  0  0  0  0  0  0  0  0
    1.3585   -5.1286    1.2356 C   0  0  0  0  0  0  0  0  0  0  0  0
    1.0315   -6.6032    2.0605 Cl  0  0  0  0  0  0  0  0  0  0  0  0
    2.2102   -4.1431    1.7711 C   0  0  0  0  0  0  0  0  0  0  0  0
    2.4920   -2.9324    1.1236 C   0  0  0  0  0  0  0  0  0  0  0  0
    3.3118   -2.0300    1.6845 F   0  0  0  0  0  0  0  0  0  0  0  0
   -2.6574   -0.0350    2.1098 H   0  0  0  0  0  0  0  0  0  0  0  0
   -3.8740   -0.0288    0.0162 H   0  0  0  0  0  0  0  0  0  0  0  0
   -2.6547    0.0102   -2.2130 H   0  0  0  0  0  0  0  0  0  0  0  0
   -0.1564    0.0140   -2.1397 H   0  0  0  0  0  0  0  0  0  0  0  0
    1.8595    0.2217    0.9069 H   0  0  0  0  0  0  0  0  0  0  0  0
    0.5796   -3.4330   -1.6343 H   0  0  0  0  0  0  0  0  0  0  0  0
   -2.2555   -6.5976   -2.0077 H   0  0  0  0  0  0  0  0  0  0  0  0
   -2.3064   -7.4968   -0.4909 H   0  0  0  0  0  0  0  0  0  0  0  0
   -4.0270   -5.0564   -1.2216 H   0  0  0  0  0  0  0  0  0  0  0  0
   -4.5861   -6.7285   -1.0995 H   0  0  0  0  0  0  0  0  0  0  0  0
   -5.8845   -5.6858    1.8594 H   0  0  0  0  0  0  0  0  0  0  0  0
   -6.1016   -5.1929    0.1797 H   0  0  0  0  0  0  0  0  0  0  0  0
   -5.8157   -3.2837    2.0335 H   0  0  0  0  0  0  0  0  0  0  0  0
   -4.8567   -3.1360    0.5442 H   0  0  0  0  0  0  0  0  0  0  0  0
   -3.1595   -3.0385    2.2607 H   0  0  0  0  0  0  0  0  0  0  0  0
   -3.9874   -4.2738    3.2261 H   0  0  0  0  0  0  0  0  0  0  0  0
   -2.5973   -5.7779    2.1871 H   0  0  0  0  0  0  0  0  0  0  0  0
   -1.0981   -4.1853    1.1383 H   0  0  0  0  0  0  0  0  0  0  0  0
   -2.2896   -3.7464   -0.0857 H   0  0  0  0  0  0  0  0  0  0  0  0
    2.6729   -4.3331    2.7387 H   0  0  0  0  0  0  0  0  0  0  0  0
  1  2  1  0
  2  3  2  0
  3  4  1  0
  4  5  2  0
  5  6  1  0
  6  7  2  0
  7  8  1  0
  8  9  1  0
  9 10  2  0
  9 11  2  0
  9 12  1  0
 12 13  2  0
 13 14  1  0
 14 15  1  0
 15 16  2  0
 15 17  1  0
 17 18  1  0
 18 19  1  0
 19 20  1  0
 20 21  1  0
 21 22  1  0
 22 23  1  0
 24 23  1  0
 24 25  1  0
 14 26  2  0
 26 27  1  0
 26 28  1  0
 28 29  2  0
 29 30  1  0
  7  2  1  0
 29 12  1  0
 25 17  1  0
 24 20  1  0
  3 31  1  0
  4 32  1  0
  5 33  1  0
  6 34  1  0
  8 35  1  0
 13 36  1  0
 18 37  1  0
 18 38  1  0
 19 39  1  0
 19 40  1  0
 21 41  1  0
 21 42  1  0
 22 43  1  0
 22 44  1  0
 23 45  1  0
 23 46  1  0
 24 47  1  1
 25 48  1  0
 25 49  1  0
 28 50  1  0
M  END
>  <_MoleculeID>  (298) 
smi32

>  <_InputIndex>  (298) 
32

>  <_InputSMILES>  (298) 
Fc1ccccc1NS(=O)(=O)c1cc(C(=O)N2CCN3CCC[C@@H]3C2)c(Cl)cc1F

>  <_InputInChIKey>  (298) 
AGPIHNZOZNKRGT-CYBMUJFWSA-N

>  <_SMILES>  (298) 
O=C(c1cc(S(=O)(=O)Nc2ccccc2F)c(F)cc1Cl)N1CCN2CCC[C@@H]2C1

>  <_InChIKey>  (298) 
AGPIHNZOZNKRGT-CYBMUJFWSA-N

$$$$
smi32_conf4
     RDKit          3D

 50 53  0  0  0  0  0  0  0  0999 V2000
   -0.0342   -0.0037    2.3777 F   0  0  0  0  0  0  0  0  0  0  0  0
   -0.6943    0.0000    1.2092 C   0  0  0  0  0  0  0  0  0  0  0  0
   -2.0911   -0.0155    1.1816 C   0  0  0  0  0  0  0  0  0  0  0  0
   -2.7882   -0.0107   -0.0357 C   0  0  0  0  0  0  0  0  0  0  0  0
   -2.1225    0.0068   -1.2711 C   0  0  0  0  0  0  0  0  0  0  0  0
   -0.7157    0.0074   -1.2050 C   0  0  0  0  0  0  0  0  0  0  0  0
    0.0000    0.0000    0.0000 C   0  0  0  0  0  0  0  0  0  0  0  0
    1.4280   -0.0000    0.0000 N   0  0  0  0  0  0  0  0  0  0  0  0
    2.2546   -1.1543   -0.9686 S   0  0  0  0  0  6  0  0  0  0  0  0
    1.6001   -1.2429   -2.2604 O   0  0  0  0  0  0  0  0  0  0  0  0
    3.6833   -0.9127   -0.9033 O   0  0  0  0  0  0  0  0  0  0  0  0
    1.9179   -2.6706   -0.1198 C   0  0  0  0  0  0  0  0  0  0  0  0
    2.9375   -3.3527    0.5490 C   0  0  0  0  0  0  0  0  0  0  0  0
    2.6784   -4.5543    1.2248 C   0  0  0  0  0  0  0  0  0  0  0  0
    3.8049   -5.1981    1.8876 C   0  0  0  0  0  0  0  0  0  0  0  0
    4.4983   -6.0088    1.2800 O   0  0  0  0  0  0  0  0  0  0  0  0
    4.0401   -4.8330    3.1859 N   0  0  0  0  0  0  0  0  0  0  0  0
    5.1555   -5.3966    3.9486 C   0  0  0  0  0  0  0  0  0  0  0  0
    5.8704   -4.3321    4.7921 C   0  0  0  0  0  0  0  0  0  0  0  0
    4.8793   -3.5956    5.5701 N   0  0  0  0  0  0  0  0  0  0  0  0
    5.4160   -2.5396    6.4190 C   0  0  0  0  0  0  0  0  0  0  0  0
    4.1813   -1.6905    6.7295 C   0  0  0  0  0  0  0  0  0  0  0  0
    3.1255   -2.1035    5.6995 C   0  0  0  0  0  0  0  0  0  0  0  0
    3.9105   -2.9258    4.6942 C   0  0  2  0  0  0  0  0  0  0  0  0
    3.1164   -3.9603    3.9122 C   0  0  0  0  0  0  0  0  0  0  0  0
    1.3963   -5.1242    1.2585 C   0  0  0  0  0  0  0  0  0  0  0  0
    1.0690   -6.5982    2.0843 Cl  0  0  0  0  0  0  0  0  0  0  0  0
    0.3970   -4.4174    0.5620 C   0  0  0  0  0  0  0  0  0  0  0  0
    0.6351   -3.2172   -0.1216 C   0  0  0  0  0  0  0  0  0  0  0  0
   -0.3581   -2.5887   -0.7692 F   0  0  0  0  0  0  0  0  0  0  0  0
   -2.6574   -0.0350    2.1098 H   0  0  0  0  0  0  0  0  0  0  0  0
   -3.8740   -0.0288    0.0162 H   0  0  0  0  0  0  0  0  0  0  0  0
   -2.6547    0.0102   -2.2130 H   0  0  0  0  0  0  0  0  0  0  0  0
   -0.1564    0.0140   -2.1397 H   0  0  0  0  0  0  0  0  0  0  0  0
    1.8595    0.2217    0.9069 H   0  0  0  0  0  0  0  0  0  0  0  0
    3.9511   -2.9586    0.5503 H   0  0  0  0  0  0  0  0  0  0  0  0
    5.8636   -5.8817    3.2677 H   0  0  0  0  0  0  0  0  0  0  0  0
    4.7353   -6.1757    4.5966 H   0  0  0  0  0  0  0  0  0  0  0  0
    6.4336   -3.6571    4.1350 H   0  0  0  0  0  0  0  0  0  0  0  0
    6.5884   -4.8248    5.4572 H   0  0  0  0  0  0  0  0  0  0  0  0
    5.8720   -2.9369    7.3309 H   0  0  0  0  0  0  0  0  0  0  0  0
    6.1614   -1.9308    5.8923 H   0  0  0  0  0  0  0  0  0  0  0  0
    3.8112   -1.8795    7.7433 H   0  0  0  0  0  0  0  0  0  0  0  0
    4.4155   -0.6235    6.6484 H   0  0  0  0  0  0  0  0  0  0  0  0
    2.6463   -1.2341    5.2385 H   0  0  0  0  0  0  0  0  0  0  0  0
    2.3449   -2.6999    6.1878 H   0  0  0  0  0  0  0  0  0  0  0  0
    4.4282   -2.2524    3.9946 H   0  0  0  0  0  0  0  0  0  0  0  0
    2.5231   -4.6003    4.5767 H   0  0  0  0  0  0  0  0  0  0  0  0
    2.4254   -3.4778    3.2124 H   0  0  0  0  0  0  0  0  0  0  0  0
   -0.6128   -4.8259    0.5550 H   0  0  0  0  0  0  0  0  0  0  0  0
  1  2  1  0
  2  3  2  0
  3  4  1  0
  4  5  2  0
  5  6  1  0
  6  7  2  0
  7  8  1  0
  8  9  1  0
  9 10  2  0
  9 11  2  0
  9 12  1  0
 12 13  2  0
 13 14  1  0
 14 15  1  0
 15 16  2  0
 15 17  1  0
 17 18  1  0
 18 19  1  0
 19 20  1  0
 20 21  1  0
 21 22  1  0
 22 23  1  0
 24 23  1  0
 24 25  1  0
 14 26  2  0
 26 27  1  0
 26 28  1  0
 28 29  2  0
 29 30  1  0
  7  2  1  0
 29 12  1  0
 25 17  1  0
 24 20  1  0
  3 31  1  0
  4 32  1  0
  5 33  1  0
  6 34  1  0
  8 35  1  0
 13 36  1  0
 18 37  1  0
 18 38  1  0
 19 39  1  0
 19 40  1  0
 21 41  1  0
 21 42  1  0
 22 43  1  0
 22 44  1  0
 23 45  1  0
 23 46  1  0
 24 47  1  6
 25 48  1  0
 25 49  1  0
 28 50  1  0
M  END
>  <_MoleculeID>  (299) 
smi32

>  <_InputIndex>  (299) 
32

>  <_InputSMILES>  (299) 
Fc1ccccc1NS(=O)(=O)c1cc(C(=O)N2CCN3CCC[C@@H]3C2)c(Cl)cc1F

>  <_InputInChIKey>  (299) 
AGPIHNZOZNKRGT-CYBMUJFWSA-N

>  <_SMILES>  (299) 
O=C(c1cc(S(=O)(=O)Nc2ccccc2F)c(F)cc1Cl)N1CCN2CCC[C@@H]2C1

>  <_InChIKey>  (299) 
AGPIHNZOZNKRGT-CYBMUJFWSA-N

$$$$
smi32_conf5
     RDKit          3D

 50 53  0  0  0  0  0  0  0  0999 V2000
   -0.0342   -0.0037    2.3777 F   0  0  0  0  0  0  0  0  0  0  0  0
   -0.6943    0.0000    1.2092 C   0  0  0  0  0  0  0  0  0  0  0  0
   -2.0911   -0.0155    1.1816 C   0  0  0  0  0  0  0  0  0  0  0  0
   -2.7882   -0.0107   -0.0357 C   0  0  0  0  0  0  0  0  0  0  0  0
   -2.1225    0.0068   -1.2711 C   0  0  0  0  0  0  0  0  0  0  0  0
   -0.7157    0.0074   -1.2050 C   0  0  0  0  0  0  0  0  0  0  0  0
    0.0000    0.0000    0.0000 C   0  0  0  0  0  0  0  0  0  0  0  0
    1.4280    0.0000   -0.0000 N   0  0  0  0  0  0  0  0  0  0  0  0
    2.2546    1.1543   -0.9686 S   0  0  0  0  0  6  0  0  0  0  0  0
    3.6831    0.9235   -0.8636 O   0  0  0  0  0  0  0  0  0  0  0  0
    1.6339    1.2270   -2.2776 O   0  0  0  0  0  0  0  0  0  0  0  0
    1.9179    2.6706   -0.1198 C   0  0  0  0  0  0  0  0  0  0  0  0
    1.0865    3.6365   -0.6923 C   0  0  0  0  0  0  0  0  0  0  0  0
    0.8140    4.8402   -0.0254 C   0  0  0  0  0  0  0  0  0  0  0  0
   -0.0581    5.7905   -0.7029 C   0  0  0  0  0  0  0  0  0  0  0  0
   -1.2720    5.7523   -0.5228 O   0  0  0  0  0  0  0  0  0  0  0  0
    0.5522    6.7110   -1.5118 N   0  0  0  0  0  0  0  0  0  0  0  0
    2.0042    6.7211   -1.6988 C   0  0  0  0  0  0  0  0  0  0  0  0
    2.5745    8.1461   -1.6892 C   0  0  0  0  0  0  0  0  0  0  0  0
    1.8105    8.9717   -2.6190 N   0  0  0  0  0  0  0  0  0  0  0  0
    2.2374   10.3621   -2.7097 C   0  0  0  0  0  0  0  0  0  0  0  0
    1.0338   11.0470   -3.3611 C   0  0  0  0  0  0  0  0  0  0  0  0
   -0.1319   10.0646   -3.2119 C   0  0  0  0  0  0  0  0  0  0  0  0
    0.3955    9.0313   -2.2336 C   0  0  1  0  0  0  0  0  0  0  0  0
   -0.2259    7.6465   -2.3253 C   0  0  0  0  0  0  0  0  0  0  0  0
    1.3605    5.1297    1.2344 C   0  0  0  0  0  0  0  0  0  0  0  0
    1.0325    6.6038    2.0599 Cl  0  0  0  0  0  0  0  0  0  0  0  0
    2.2047    4.1401    1.7742 C   0  0  0  0  0  0  0  0  0  0  0  0
    2.4920    2.9324    1.1236 C   0  0  0  0  0  0  0  0  0  0  0  0
    3.3059    2.0268    1.6879 F   0  0  0  0  0  0  0  0  0  0  0  0
   -2.6574   -0.0350    2.1098 H   0  0  0  0  0  0  0  0  0  0  0  0
   -3.8740   -0.0288    0.0162 H   0  0  0  0  0  0  0  0  0  0  0  0
   -2.6547    0.0102   -2.2130 H   0  0  0  0  0  0  0  0  0  0  0  0
   -0.1564    0.0140   -2.1397 H   0  0  0  0  0  0  0  0  0  0  0  0
    1.8595   -0.9316    0.0609 H   0  0  0  0  0  0  0  0  0  0  0  0
    0.6408    3.4663   -1.6696 H   0  0  0  0  0  0  0  0  0  0  0  0
    2.4830    6.1140   -0.9226 H   0  0  0  0  0  0  0  0  0  0  0  0
    2.2033    6.2387   -2.6638 H   0  0  0  0  0  0  0  0  0  0  0  0
    2.5283    8.5556   -0.6720 H   0  0  0  0  0  0  0  0  0  0  0  0
    3.6287    8.1120   -1.9866 H   0  0  0  0  0  0  0  0  0  0  0  0
    3.1422   10.4759   -3.3146 H   0  0  0  0  0  0  0  0  0  0  0  0
    2.4215   10.7987   -1.7202 H   0  0  0  0  0  0  0  0  0  0  0  0
    1.2173   11.2540   -4.4213 H   0  0  0  0  0  0  0  0  0  0  0  0
    0.8144   11.9981   -2.8639 H   0  0  0  0  0  0  0  0  0  0  0  0
   -1.0355   10.5600   -2.8431 H   0  0  0  0  0  0  0  0  0  0  0  0
   -0.3659    9.6167   -4.1856 H   0  0  0  0  0  0  0  0  0  0  0  0
    0.2939    9.4136   -1.2067 H   0  0  0  0  0  0  0  0  0  0  0  0
   -0.2141    7.2663   -3.3542 H   0  0  0  0  0  0  0  0  0  0  0  0
   -1.2683    7.6610   -1.9890 H   0  0  0  0  0  0  0  0  0  0  0  0
    2.6571    4.3245    2.7478 H   0  0  0  0  0  0  0  0  0  0  0  0
  1  2  1  0
  2  3  2  0
  3  4  1  0
  4  5  2  0
  5  6  1  0
  6  7  2  0
  7  8  1  0
  8  9  1  0
  9 10  2  0
  9 11  2  0
  9 12  1  0
 12 13  2  0
 13 14  1  0
 14 15  1  0
 15 16  2  0
 15 17  1  0
 17 18  1  0
 18 19  1  0
 19 20  1  0
 20 21  1  0
 21 22  1  0
 22 23  1  0
 24 23  1  0
 24 25  1  0
 14 26  2  0
 26 27  1  0
 26 28  1  0
 28 29  2  0
 29 30  1  0
  7  2  1  0
 29 12  1  0
 25 17  1  0
 24 20  1  0
  3 31  1  0
  4 32  1  0
  5 33  1  0
  6 34  1  0
  8 35  1  0
 13 36  1  0
 18 37  1  0
 18 38  1  0
 19 39  1  0
 19 40  1  0
 21 41  1  0
 21 42  1  0
 22 43  1  0
 22 44  1  0
 23 45  1  0
 23 46  1  0
 24 47  1  1
 25 48  1  0
 25 49  1  0
 28 50  1  0
M  END
>  <_MoleculeID>  (300) 
smi32

>  <_InputIndex>  (300) 
32

>  <_InputSMILES>  (300) 
Fc1ccccc1NS(=O)(=O)c1cc(C(=O)N2CCN3CCC[C@@H]3C2)c(Cl)cc1F

>  <_InputInChIKey>  (300) 
AGPIHNZOZNKRGT-CYBMUJFWSA-N

>  <_SMILES>  (300) 
O=C(c1cc(S(=O)(=O)Nc2ccccc2F)c(F)cc1Cl)N1CCN2CCC[C@@H]2C1

>  <_InChIKey>  (300) 
AGPIHNZOZNKRGT-CYBMUJFWSA-N

$$$$
smi32_conf6
     RDKit          3D

 50 53  0  0  0  0  0  0  0  0999 V2000
   -0.0342   -0.0037    2.3777 F   0  0  0  0  0  0  0  0  0  0  0  0
   -0.6943    0.0000    1.2092 C   0  0  0  0  0  0  0  0  0  0  0  0
   -2.0911   -0.0155    1.1816 C   0  0  0  0  0  0  0  0  0  0  0  0
   -2.7882   -0.0107   -0.0357 C   0  0  0  0  0  0  0  0  0  0  0  0
   -2.1225    0.0068   -1.2711 C   0  0  0  0  0  0  0  0  0  0  0  0
   -0.7157    0.0074   -1.2050 C   0  0  0  0  0  0  0  0  0  0  0  0
    0.0000    0.0000    0.0000 C   0  0  0  0  0  0  0  0  0  0  0  0
    1.4280    0.0000   -0.0000 N   0  0  0  0  0  0  0  0  0  0  0  0
    2.2546    1.1543   -0.9686 S   0  0  0  0  0  6  0  0  0  0  0  0
    3.6831    0.9235   -0.8636 O   0  0  0  0  0  0  0  0  0  0  0  0
    1.6339    1.2270   -2.2776 O   0  0  0  0  0  0  0  0  0  0  0  0
    1.9179    2.6706   -0.1198 C   0  0  0  0  0  0  0  0  0  0  0  0
    2.9289    3.3327    0.5813 C   0  0  0  0  0  0  0  0  0  0  0  0
    2.6702    4.5352    1.2557 C   0  0  0  0  0  0  0  0  0  0  0  0
    3.7842    5.1500    1.9654 C   0  0  0  0  0  0  0  0  0  0  0  0
    4.5076    5.9619    1.3954 O   0  0  0  0  0  0  0  0  0  0  0  0
    3.9503    4.7860    3.2747 N   0  0  0  0  0  0  0  0  0  0  0  0
    3.0593    3.8149    3.9010 C   0  0  0  0  0  0  0  0  0  0  0  0
    3.6471    3.2563    5.1958 C   0  0  0  0  0  0  0  0  0  0  0  0
    3.9368    4.3367    6.1369 N   0  0  0  0  0  0  0  0  0  0  0  0
    4.7402    3.9023    7.2802 C   0  0  0  0  0  0  0  0  0  0  0  0
    5.3669    5.1925    7.7742 C   0  0  0  0  0  0  0  0  0  0  0  0
    5.7225    5.8981    6.4783 C   0  0  0  0  0  0  0  0  0  0  0  0
    4.5776    5.5233    5.5386 C   0  0  1  0  0  0  0  0  0  0  0  0
    5.0268    5.3403    4.0885 C   0  0  0  0  0  0  0  0  0  0  0  0
    1.3957    5.1229    1.2605 C   0  0  0  0  0  0  0  0  0  0  0  0
    1.0687    6.5975    2.0855 Cl  0  0  0  0  0  0  0  0  0  0  0  0
    0.3985    4.4209    0.5562 C   0  0  0  0  0  0  0  0  0  0  0  0
    0.6351    3.2172   -0.1216 C   0  0  0  0  0  0  0  0  0  0  0  0
   -0.3565    2.5925   -0.7755 F   0  0  0  0  0  0  0  0  0  0  0  0
   -2.6574   -0.0350    2.1098 H   0  0  0  0  0  0  0  0  0  0  0  0
   -3.8740   -0.0288    0.0162 H   0  0  0  0  0  0  0  0  0  0  0  0
   -2.6547    0.0102   -2.2130 H   0  0  0  0  0  0  0  0  0  0  0  0
   -0.1564    0.0140   -2.1397 H   0  0  0  0  0  0  0  0  0  0  0  0
    1.8595   -0.2217    0.9069 H   0  0  0  0  0  0  0  0  0  0  0  0
    3.9340    2.9186    0.6151 H   0  0  0  0  0  0  0  0  0  0  0  0
    2.8567    3.0099    3.1854 H   0  0  0  0  0  0  0  0  0  0  0  0
    2.1067    4.3241    4.0928 H   0  0  0  0  0  0  0  0  0  0  0  0
    4.5569    2.6902    4.9560 H   0  0  0  0  0  0  0  0  0  0  0  0
    2.9349    2.5564    5.6471 H   0  0  0  0  0  0  0  0  0  0  0  0
    4.1265    3.4260    8.0506 H   0  0  0  0  0  0  0  0  0  0  0  0
    5.5324    3.2049    6.9801 H   0  0  0  0  0  0  0  0  0  0  0  0
    4.6394    5.7842    8.3433 H   0  0  0  0  0  0  0  0  0  0  0  0
    6.2427    5.0193    8.4061 H   0  0  0  0  0  0  0  0  0  0  0  0
    6.6826    5.5191    6.1074 H   0  0  0  0  0  0  0  0  0  0  0  0
    5.8117    6.9802    6.6154 H   0  0  0  0  0  0  0  0  0  0  0  0
    3.8260    6.3236    5.5654 H   0  0  0  0  0  0  0  0  0  0  0  0
    5.3628    6.2909    3.6588 H   0  0  0  0  0  0  0  0  0  0  0  0
    5.8674    4.6385    4.0202 H   0  0  0  0  0  0  0  0  0  0  0  0
   -0.6083    4.8363    0.5383 H   0  0  0  0  0  0  0  0  0  0  0  0
  1  2  1  0
  2  3  2  0
  3  4  1  0
  4  5  2  0
  5  6  1  0
  6  7  2  0
  7  8  1  0
  8  9  1  0
  9 10  2  0
  9 11  2  0
  9 12  1  0
 12 13  2  0
 13 14  1  0
 14 15  1  0
 15 16  2  0
 15 17  1  0
 17 18  1  0
 18 19  1  0
 19 20  1  0
 20 21  1  0
 21 22  1  0
 22 23  1  0
 24 23  1  0
 24 25  1  0
 14 26  2  0
 26 27  1  0
 26 28  1  0
 28 29  2  0
 29 30  1  0
  7  2  1  0
 29 12  1  0
 25 17  1  0
 24 20  1  0
  3 31  1  0
  4 32  1  0
  5 33  1  0
  6 34  1  0
  8 35  1  0
 13 36  1  0
 18 37  1  0
 18 38  1  0
 19 39  1  0
 19 40  1  0
 21 41  1  0
 21 42  1  0
 22 43  1  0
 22 44  1  0
 23 45  1  0
 23 46  1  0
 24 47  1  6
 25 48  1  0
 25 49  1  0
 28 50  1  0
M  END
>  <_MoleculeID>  (301) 
smi32

>  <_InputIndex>  (301) 
32

>  <_InputSMILES>  (301) 
Fc1ccccc1NS(=O)(=O)c1cc(C(=O)N2CCN3CCC[C@@H]3C2)c(Cl)cc1F

>  <_InputInChIKey>  (301) 
AGPIHNZOZNKRGT-CYBMUJFWSA-N

>  <_SMILES>  (301) 
O=C(c1cc(S(=O)(=O)Nc2ccccc2F)c(F)cc1Cl)N1CCN2CCC[C@@H]2C1

>  <_InChIKey>  (301) 
AGPIHNZOZNKRGT-CYBMUJFWSA-N

$$$$
smi32_conf7
     RDKit          3D

 50 53  0  0  0  0  0  0  0  0999 V2000
   -0.0342   -0.0037    2.3777 F   0  0  0  0  0  0  0  0  0  0  0  0
   -0.6943    0.0000    1.2092 C   0  0  0  0  0  0  0  0  0  0  0  0
   -2.0911   -0.0155    1.1816 C   0  0  0  0  0  0  0  0  0  0  0  0
   -2.7882   -0.0107   -0.0357 C   0  0  0  0  0  0  0  0  0  0  0  0
   -2.1225    0.0068   -1.2711 C   0  0  0  0  0  0  0  0  0  0  0  0
   -0.7157    0.0074   -1.2050 C   0  0  0  0  0  0  0  0  0  0  0  0
    0.0000    0.0000    0.0000 C   0  0  0  0  0  0  0  0  0  0  0  0
    1.4280   -0.0000    0.0000 N   0  0  0  0  0  0  0  0  0  0  0  0
    2.2546   -1.1543   -0.9686 S   0  0  0  0  0  6  0  0  0  0  0  0
    1.6001   -1.2429   -2.2604 O   0  0  0  0  0  0  0  0  0  0  0  0
    3.6833   -0.9127   -0.9033 O   0  0  0  0  0  0  0  0  0  0  0  0
    1.9179   -2.6706   -0.1198 C   0  0  0  0  0  0  0  0  0  0  0  0
    1.0559   -3.6199   -0.6747 C   0  0  0  0  0  0  0  0  0  0  0  0
    0.7849   -4.8243   -0.0086 C   0  0  0  0  0  0  0  0  0  0  0  0
   -0.1316   -5.7505   -0.6605 C   0  0  0  0  0  0  0  0  0  0  0  0
    0.2977   -6.6075   -1.4278 O   0  0  0  0  0  0  0  0  0  0  0  0
   -1.4587   -5.6155   -0.3526 N   0  0  0  0  0  0  0  0  0  0  0  0
   -1.9368   -4.5898    0.5604 C   0  0  0  0  0  0  0  0  0  0  0  0
   -2.8388   -5.2116    1.6214 C   0  0  0  0  0  0  0  0  0  0  0  0
   -3.9590   -5.9509    1.0114 N   0  0  0  0  0  0  0  0  0  0  0  0
   -4.6592   -6.7586    2.0232 C   0  0  0  0  0  0  0  0  0  0  0  0
   -3.9292   -8.0978    2.0829 C   0  0  0  0  0  0  0  0  0  0  0  0
   -3.0464   -8.1365    0.8401 C   0  0  0  0  0  0  0  0  0  0  0  0
   -3.5156   -6.9436    0.0101 C   0  0  2  0  0  0  0  0  0  0  0  0
   -2.4811   -6.4279   -0.9914 C   0  0  0  0  0  0  0  0  0  0  0  0
    1.3585   -5.1286    1.2356 C   0  0  0  0  0  0  0  0  0  0  0  0
    1.0315   -6.6032    2.0605 Cl  0  0  0  0  0  0  0  0  0  0  0  0
    2.2102   -4.1431    1.7711 C   0  0  0  0  0  0  0  0  0  0  0  0
    2.4920   -2.9324    1.1236 C   0  0  0  0  0  0  0  0  0  0  0  0
    3.3118   -2.0300    1.6845 F   0  0  0  0  0  0  0  0  0  0  0  0
   -2.6574   -0.0350    2.1098 H   0  0  0  0  0  0  0  0  0  0  0  0
   -3.8740   -0.0288    0.0162 H   0  0  0  0  0  0  0  0  0  0  0  0
   -2.6547    0.0102   -2.2130 H   0  0  0  0  0  0  0  0  0  0  0  0
   -0.1564    0.0140   -2.1397 H   0  0  0  0  0  0  0  0  0  0  0  0
    1.8595    0.9316    0.0609 H   0  0  0  0  0  0  0  0  0  0  0  0
    0.5796   -3.4330   -1.6343 H   0  0  0  0  0  0  0  0  0  0  0  0
   -1.0884   -4.0824    1.0323 H   0  0  0  0  0  0  0  0  0  0  0  0
   -2.4832   -3.8454   -0.0310 H   0  0  0  0  0  0  0  0  0  0  0  0
   -2.2310   -5.8609    2.2649 H   0  0  0  0  0  0  0  0  0  0  0  0
   -3.2392   -4.4128    2.2569 H   0  0  0  0  0  0  0  0  0  0  0  0
   -5.6906   -6.9212    1.6866 H   0  0  0  0  0  0  0  0  0  0  0  0
   -4.7222   -6.2720    3.0030 H   0  0  0  0  0  0  0  0  0  0  0  0
   -4.6419   -8.9293    2.0883 H   0  0  0  0  0  0  0  0  0  0  0  0
   -3.3127   -8.1753    2.9852 H   0  0  0  0  0  0  0  0  0  0  0  0
   -1.9925   -8.0454    1.1288 H   0  0  0  0  0  0  0  0  0  0  0  0
   -3.1605   -9.0797    0.2958 H   0  0  0  0  0  0  0  0  0  0  0  0
   -4.3965   -7.2618   -0.5653 H   0  0  0  0  0  0  0  0  0  0  0  0
   -2.9727   -5.7798   -1.7276 H   0  0  0  0  0  0  0  0  0  0  0  0
   -2.0179   -7.2551   -1.5410 H   0  0  0  0  0  0  0  0  0  0  0  0
    2.6729   -4.3331    2.7387 H   0  0  0  0  0  0  0  0  0  0  0  0
  1  2  1  0
  2  3  2  0
  3  4  1  0
  4  5  2  0
  5  6  1  0
  6  7  2  0
  7  8  1  0
  8  9  1  0
  9 10  2  0
  9 11  2  0
  9 12  1  0
 12 13  2  0
 13 14  1  0
 14 15  1  0
 15 16  2  0
 15 17  1  0
 17 18  1  0
 18 19  1  0
 19 20  1  0
 20 21  1  0
 21 22  1  0
 22 23  1  0
 24 23  1  0
 24 25  1  0
 14 26  2  0
 26 27  1  0
 26 28  1  0
 28 29  2  0
 29 30  1  0
  7  2  1  0
 29 12  1  0
 25 17  1  0
 24 20  1  0
  3 31  1  0
  4 32  1  0
  5 33  1  0
  6 34  1  0
  8 35  1  0
 13 36  1  0
 18 37  1  0
 18 38  1  0
 19 39  1  0
 19 40  1  0
 21 41  1  0
 21 42  1  0
 22 43  1  0
 22 44  1  0
 23 45  1  0
 23 46  1  0
 24 47  1  6
 25 48  1  0
 25 49  1  0
 28 50  1  0
M  END
>  <_MoleculeID>  (302) 
smi32

>  <_InputIndex>  (302) 
32

>  <_InputSMILES>  (302) 
Fc1ccccc1NS(=O)(=O)c1cc(C(=O)N2CCN3CCC[C@@H]3C2)c(Cl)cc1F

>  <_InputInChIKey>  (302) 
AGPIHNZOZNKRGT-CYBMUJFWSA-N

>  <_SMILES>  (302) 
O=C(c1cc(S(=O)(=O)Nc2ccccc2F)c(F)cc1Cl)N1CCN2CCC[C@@H]2C1

>  <_InChIKey>  (302) 
AGPIHNZOZNKRGT-CYBMUJFWSA-N

$$$$
smi32_conf8
     RDKit          3D

 50 53  0  0  0  0  0  0  0  0999 V2000
   -0.0342   -0.0037    2.3777 F   0  0  0  0  0  0  0  0  0  0  0  0
   -0.6943    0.0000    1.2092 C   0  0  0  0  0  0  0  0  0  0  0  0
   -2.0911   -0.0155    1.1816 C   0  0  0  0  0  0  0  0  0  0  0  0
   -2.7882   -0.0107   -0.0357 C   0  0  0  0  0  0  0  0  0  0  0  0
   -2.1225    0.0068   -1.2711 C   0  0  0  0  0  0  0  0  0  0  0  0
   -0.7157    0.0074   -1.2050 C   0  0  0  0  0  0  0  0  0  0  0  0
    0.0000    0.0000    0.0000 C   0  0  0  0  0  0  0  0  0  0  0  0
    1.4280   -0.0000    0.0000 N   0  0  0  0  0  0  0  0  0  0  0  0
    2.2546   -1.1543   -0.9686 S   0  0  0  0  0  6  0  0  0  0  0  0
    1.6001   -1.2429   -2.2604 O   0  0  0  0  0  0  0  0  0  0  0  0
    3.6833   -0.9127   -0.9033 O   0  0  0  0  0  0  0  0  0  0  0  0
    1.9179   -2.6706   -0.1198 C   0  0  0  0  0  0  0  0  0  0  0  0
    2.9375   -3.3527    0.5490 C   0  0  0  0  0  0  0  0  0  0  0  0
    2.6784   -4.5543    1.2248 C   0  0  0  0  0  0  0  0  0  0  0  0
    3.8049   -5.1981    1.8876 C   0  0  0  0  0  0  0  0  0  0  0  0
    4.0670   -4.9335    3.0575 O   0  0  0  0  0  0  0  0  0  0  0  0
    4.5147   -6.1033    1.1454 N   0  0  0  0  0  0  0  0  0  0  0  0
    5.6486   -6.8190    1.7210 C   0  0  0  0  0  0  0  0  0  0  0  0
    6.0311   -8.0417    0.8887 C   0  0  0  0  0  0  0  0  0  0  0  0
    6.3419   -7.6514   -0.4854 N   0  0  0  0  0  0  0  0  0  0  0  0
    6.4556   -8.7923   -1.3946 C   0  0  0  0  0  0  0  0  0  0  0  0
    6.2136   -8.1743   -2.7588 C   0  0  0  0  0  0  0  0  0  0  0  0
    5.0895   -7.1942   -2.4768 C   0  0  0  0  0  0  0  0  0  0  0  0
    5.4093   -6.6729   -1.0767 C   0  0  1  0  0  0  0  0  0  0  0  0
    4.1602   -6.3982   -0.2387 C   0  0  0  0  0  0  0  0  0  0  0  0
    1.3963   -5.1242    1.2585 C   0  0  0  0  0  0  0  0  0  0  0  0
    1.0690   -6.5982    2.0843 Cl  0  0  0  0  0  0  0  0  0  0  0  0
    0.3970   -4.4174    0.5620 C   0  0  0  0  0  0  0  0  0  0  0  0
    0.6351   -3.2172   -0.1216 C   0  0  0  0  0  0  0  0  0  0  0  0
   -0.3581   -2.5887   -0.7692 F   0  0  0  0  0  0  0  0  0  0  0  0
   -2.6574   -0.0350    2.1098 H   0  0  0  0  0  0  0  0  0  0  0  0
   -3.8740   -0.0288    0.0162 H   0  0  0  0  0  0  0  0  0  0  0  0
   -2.6547    0.0102   -2.2130 H   0  0  0  0  0  0  0  0  0  0  0  0
   -0.1564    0.0140   -2.1397 H   0  0  0  0  0  0  0  0  0  0  0  0
    1.8595    0.2217    0.9069 H   0  0  0  0  0  0  0  0  0  0  0  0
    3.9511   -2.9586    0.5503 H   0  0  0  0  0  0  0  0  0  0  0  0
    5.3977   -7.1090    2.7477 H   0  0  0  0  0  0  0  0  0  0  0  0
    6.4840   -6.1105    1.7803 H   0  0  0  0  0  0  0  0  0  0  0  0
    5.2017   -8.7608    0.9143 H   0  0  0  0  0  0  0  0  0  0  0  0
    6.9027   -8.5304    1.3384 H   0  0  0  0  0  0  0  0  0  0  0  0
    7.4395   -9.2665   -1.3306 H   0  0  0  0  0  0  0  0  0  0  0  0
    5.6863   -9.5493   -1.1967 H   0  0  0  0  0  0  0  0  0  0  0  0
    7.1064   -7.6406   -3.1069 H   0  0  0  0  0  0  0  0  0  0  0  0
    5.9373   -8.9164   -3.5133 H   0  0  0  0  0  0  0  0  0  0  0  0
    4.1294   -7.7242   -2.4948 H   0  0  0  0  0  0  0  0  0  0  0  0
    5.0520   -6.3929   -3.2212 H   0  0  0  0  0  0  0  0  0  0  0  0
    5.9705   -5.7337   -1.1721 H   0  0  0  0  0  0  0  0  0  0  0  0
    3.5820   -5.5664   -0.6571 H   0  0  0  0  0  0  0  0  0  0  0  0
    3.4988   -7.2733   -0.2155 H   0  0  0  0  0  0  0  0  0  0  0  0
   -0.6128   -4.8259    0.5550 H   0  0  0  0  0  0  0  0  0  0  0  0
  1  2  1  0
  2  3  2  0
  3  4  1  0
  4  5  2  0
  5  6  1  0
  6  7  2  0
  7  8  1  0
  8  9  1  0
  9 10  2  0
  9 11  2  0
  9 12  1  0
 12 13  2  0
 13 14  1  0
 14 15  1  0
 15 16  2  0
 15 17  1  0
 17 18  1  0
 18 19  1  0
 19 20  1  0
 20 21  1  0
 21 22  1  0
 22 23  1  0
 24 23  1  0
 24 25  1  0
 14 26  2  0
 26 27  1  0
 26 28  1  0
 28 29  2  0
 29 30  1  0
  7  2  1  0
 29 12  1  0
 25 17  1  0
 24 20  1  0
  3 31  1  0
  4 32  1  0
  5 33  1  0
  6 34  1  0
  8 35  1  0
 13 36  1  0
 18 37  1  0
 18 38  1  0
 19 39  1  0
 19 40  1  0
 21 41  1  0
 21 42  1  0
 22 43  1  0
 22 44  1  0
 23 45  1  0
 23 46  1  0
 24 47  1  6
 25 48  1  0
 25 49  1  0
 28 50  1  0
M  END
>  <_MoleculeID>  (303) 
smi32

>  <_InputIndex>  (303) 
32

>  <_InputSMILES>  (303) 
Fc1ccccc1NS(=O)(=O)c1cc(C(=O)N2CCN3CCC[C@@H]3C2)c(Cl)cc1F

>  <_InputInChIKey>  (303) 
AGPIHNZOZNKRGT-CYBMUJFWSA-N

>  <_SMILES>  (303) 
O=C(c1cc(S(=O)(=O)Nc2ccccc2F)c(F)cc1Cl)N1CCN2CCC[C@@H]2C1

>  <_InChIKey>  (303) 
AGPIHNZOZNKRGT-CYBMUJFWSA-N

$$$$
smi32_conf9
     RDKit          3D

 50 53  0  0  0  0  0  0  0  0999 V2000
   -0.0342   -0.0037    2.3777 F   0  0  0  0  0  0  0  0  0  0  0  0
   -0.6943    0.0000    1.2092 C   0  0  0  0  0  0  0  0  0  0  0  0
   -2.0911   -0.0155    1.1816 C   0  0  0  0  0  0  0  0  0  0  0  0
   -2.7882   -0.0107   -0.0357 C   0  0  0  0  0  0  0  0  0  0  0  0
   -2.1225    0.0068   -1.2711 C   0  0  0  0  0  0  0  0  0  0  0  0
   -0.7157    0.0074   -1.2050 C   0  0  0  0  0  0  0  0  0  0  0  0
    0.0000    0.0000    0.0000 C   0  0  0  0  0  0  0  0  0  0  0  0
    1.4280   -0.0000    0.0000 N   0  0  0  0  0  0  0  0  0  0  0  0
    2.2546   -1.1543   -0.9686 S   0  0  0  0  0  6  0  0  0  0  0  0
    1.6001   -1.2429   -2.2604 O   0  0  0  0  0  0  0  0  0  0  0  0
    3.6833   -0.9127   -0.9033 O   0  0  0  0  0  0  0  0  0  0  0  0
    1.9179   -2.6706   -0.1198 C   0  0  0  0  0  0  0  0  0  0  0  0
    1.0559   -3.6199   -0.6747 C   0  0  0  0  0  0  0  0  0  0  0  0
    0.7849   -4.8243   -0.0086 C   0  0  0  0  0  0  0  0  0  0  0  0
   -0.1316   -5.7505   -0.6605 C   0  0  0  0  0  0  0  0  0  0  0  0
   -1.3385   -5.6792   -0.4464 O   0  0  0  0  0  0  0  0  0  0  0  0
    0.4265   -6.6625   -1.5155 N   0  0  0  0  0  0  0  0  0  0  0  0
    1.8683   -6.7140   -1.7424 C   0  0  0  0  0  0  0  0  0  0  0  0
    2.2279   -6.8725   -3.2299 C   0  0  0  0  0  0  0  0  0  0  0  0
    1.1862   -7.5498   -3.9962 N   0  0  0  0  0  0  0  0  0  0  0  0
    1.6561   -8.3120   -5.1451 C   0  0  0  0  0  0  0  0  0  0  0  0
    0.4633   -9.2047   -5.4849 C   0  0  0  0  0  0  0  0  0  0  0  0
   -0.4501   -9.1628   -4.2578 C   0  0  0  0  0  0  0  0  0  0  0  0
    0.3890   -8.4738   -3.1941 C   0  0  2  0  0  0  0  0  0  0  0  0
   -0.4009   -7.6865   -2.1555 C   0  0  0  0  0  0  0  0  0  0  0  0
    1.3585   -5.1286    1.2356 C   0  0  0  0  0  0  0  0  0  0  0  0
    1.0315   -6.6032    2.0605 Cl  0  0  0  0  0  0  0  0  0  0  0  0
    2.2102   -4.1431    1.7711 C   0  0  0  0  0  0  0  0  0  0  0  0
    2.4920   -2.9324    1.1236 C   0  0  0  0  0  0  0  0  0  0  0  0
    3.3118   -2.0300    1.6845 F   0  0  0  0  0  0  0  0  0  0  0  0
   -2.6574   -0.0350    2.1098 H   0  0  0  0  0  0  0  0  0  0  0  0
   -3.8740   -0.0288    0.0162 H   0  0  0  0  0  0  0  0  0  0  0  0
   -2.6547    0.0102   -2.2130 H   0  0  0  0  0  0  0  0  0  0  0  0
   -0.1564    0.0140   -2.1397 H   0  0  0  0  0  0  0  0  0  0  0  0
    1.8595    0.2217    0.9069 H   0  0  0  0  0  0  0  0  0  0  0  0
    0.5796   -3.4330   -1.6343 H   0  0  0  0  0  0  0  0  0  0  0  0
    2.2378   -7.5787   -1.1768 H   0  0  0  0  0  0  0  0  0  0  0  0
    2.3497   -5.8229   -1.3246 H   0  0  0  0  0  0  0  0  0  0  0  0
    3.1931   -7.3904   -3.2922 H   0  0  0  0  0  0  0  0  0  0  0  0
    2.3740   -5.8794   -3.6706 H   0  0  0  0  0  0  0  0  0  0  0  0
    1.9287   -7.6651   -5.9844 H   0  0  0  0  0  0  0  0  0  0  0  0
    2.5199   -8.9396   -4.8930 H   0  0  0  0  0  0  0  0  0  0  0  0
   -0.0732   -8.8335   -6.3653 H   0  0  0  0  0  0  0  0  0  0  0  0
    0.7919  -10.2277   -5.6972 H   0  0  0  0  0  0  0  0  0  0  0  0
   -0.7606  -10.1662   -3.9496 H   0  0  0  0  0  0  0  0  0  0  0  0
   -1.3552   -8.5906   -4.4960 H   0  0  0  0  0  0  0  0  0  0  0  0
    1.0371   -9.2127   -2.7009 H   0  0  0  0  0  0  0  0  0  0  0  0
   -1.2683   -7.1780   -2.5945 H   0  0  0  0  0  0  0  0  0  0  0  0
   -0.7822   -8.3524   -1.3727 H   0  0  0  0  0  0  0  0  0  0  0  0
    2.6729   -4.3331    2.7387 H   0  0  0  0  0  0  0  0  0  0  0  0
  1  2  1  0
  2  3  2  0
  3  4  1  0
  4  5  2  0
  5  6  1  0
  6  7  2  0
  7  8  1  0
  8  9  1  0
  9 10  2  0
  9 11  2  0
  9 12  1  0
 12 13  2  0
 13 14  1  0
 14 15  1  0
 15 16  2  0
 15 17  1  0
 17 18  1  0
 18 19  1  0
 19 20  1  0
 20 21  1  0
 21 22  1  0
 22 23  1  0
 24 23  1  0
 24 25  1  0
 14 26  2  0
 26 27  1  0
 26 28  1  0
 28 29  2  0
 29 30  1  0
  7  2  1  0
 29 12  1  0
 25 17  1  0
 24 20  1  0
  3 31  1  0
  4 32  1  0
  5 33  1  0
  6 34  1  0
  8 35  1  0
 13 36  1  0
 18 37  1  0
 18 38  1  0
 19 39  1  0
 19 40  1  0
 21 41  1  0
 21 42  1  0
 22 43  1  0
 22 44  1  0
 23 45  1  0
 23 46  1  0
 24 47  1  1
 25 48  1  0
 25 49  1  0
 28 50  1  0
M  END
>  <_MoleculeID>  (304) 
smi32

>  <_InputIndex>  (304) 
32

>  <_InputSMILES>  (304) 
Fc1ccccc1NS(=O)(=O)c1cc(C(=O)N2CCN3CCC[C@@H]3C2)c(Cl)cc1F

>  <_InputInChIKey>  (304) 
AGPIHNZOZNKRGT-CYBMUJFWSA-N

>  <_SMILES>  (304) 
O=C(c1cc(S(=O)(=O)Nc2ccccc2F)c(F)cc1Cl)N1CCN2CCC[C@@H]2C1

>  <_InChIKey>  (304) 
AGPIHNZOZNKRGT-CYBMUJFWSA-N

$$$$
